# generated using pymatgen
data_1541869
loop_
 _publ_author_name
  'Schubert, K.'
  'Seitz, A.'
_publ_section_title   'Kristallstruktur von Sc (O H)3 und In (O H)3'
_journal_name_full
'Zeitschrift fuer Anorganische und Allgemeine Chemie'
_journal_page_first   226
_journal_page_last   238
_journal_volume   256
_journal_year   1948
_chemical_formula_sum   'H3 O3 Sc'
_chemical_name_systematic   'Sc (O H)3'
_space_group_IT_number   204
_symmetry_space_group_name_Hall   '-I 2 2 3'
_symmetry_space_group_name_H-M   'I m -3'
_cell_angle_alpha   90
_cell_angle_beta   90
_cell_angle_gamma   90
_cell_formula_units_Z   8
_cell_length_a   7.882
_cell_length_b   7.882
_cell_length_c   7.882
_cell_volume   489.677
_citation_journal_id_ASTM   ZAACAB
_cod_data_source_file   Schubert_ZAACAB_1948_1657.cif
_cod_data_source_block   H3O3Sc1
_cod_original_cell_volume   489.6765
_cod_original_formula_sum   'H3 O3 Sc1'
_cod_database_code   1541869
loop_
 _symmetry_equiv_pos_as_xyz
  x,y,z
  -x,-y,z
  x,-y,-z
  -x,y,-z
  z,x,y
  -z,-x,y
  z,-x,-y
  -z,x,-y
  y,z,x
  y,-z,-x
  -y,z,-x
  -y,-z,x
  -x,-y,-z
  x,y,-z
  -x,y,z
  x,-y,z
  -z,-x,-y
  z,x,-y
  -z,x,y
  z,-x,y
  -y,-z,-x
  -y,z,x
  y,-z,x
  y,z,-x
  x+1/2,y+1/2,z+1/2
  -x+1/2,-y+1/2,z+1/2
  x+1/2,-y+1/2,-z+1/2
  -x+1/2,y+1/2,-z+1/2
  z+1/2,x+1/2,y+1/2
  -z+1/2,-x+1/2,y+1/2
  z+1/2,-x+1/2,-y+1/2
  -z+1/2,x+1/2,-y+1/2
  y+1/2,z+1/2,x+1/2
  y+1/2,-z+1/2,-x+1/2
  -y+1/2,z+1/2,-x+1/2
  -y+1/2,-z+1/2,x+1/2
  -x+1/2,-y+1/2,-z+1/2
  x+1/2,y+1/2,-z+1/2
  -x+1/2,y+1/2,z+1/2
  x+1/2,-y+1/2,z+1/2
  -z+1/2,-x+1/2,-y+1/2
  z+1/2,x+1/2,-y+1/2
  -z+1/2,x+1/2,y+1/2
  z+1/2,-x+1/2,y+1/2
  -y+1/2,-z+1/2,-x+1/2
  -y+1/2,z+1/2,x+1/2
  y+1/2,-z+1/2,x+1/2
  y+1/2,z+1/2,-x+1/2
loop_
 _atom_site_label
 _atom_site_type_symbol
 _atom_site_fract_x
 _atom_site_fract_y
 _atom_site_fract_z
 _atom_site_occupancy
 _atom_site_U_iso_or_equiv
  Sc1  Sc+3  0.25  0.25  0.25  1  0.0
  O1  O-2  0  0.307  0.182  1  0.0
