# generated using pymatgen
data_2310638
loop_
 _publ_author_name
  'Mooney, R.C.L.'
_publ_section_title   'The Structure of anhydrous scandium phosphate'
_journal_name_full   'Acta Crystallographica (1,1948-23,1967)'
_journal_page_first   677
_journal_page_last   678
_journal_volume   9
_journal_year   1956
_chemical_formula_sum   'O4 P Sc'
_chemical_name_systematic   'Sc P O4'
_space_group_IT_number   141
_symmetry_space_group_name_Hall   'I 4bw 2bw -1bw'
_symmetry_space_group_name_H-M   'I 41/a m d :1'
_cell_angle_alpha   90
_cell_angle_beta   90
_cell_angle_gamma   90
_cell_formula_units_Z   4
_cell_length_a   6.578
_cell_length_b   6.578
_cell_length_c   5.796
_cell_volume   250.793
_citation_journal_id_ASTM   ACCRA9
_cod_data_source_file   Mooney_ACCRA9_1956_202.cif
_cod_data_source_block   O4P1Sc1
_cod_original_cell_volume   250.7934
_cod_original_sg_symbol_Hall   '-I 4bd 2 (x+1/2,y+1/4,z+1/8)'
_cod_original_formula_sum   'O4 P1 Sc1'
_cod_database_code   2310638
loop_
 _symmetry_equiv_pos_as_xyz
  x,y,z
  -y,x+1/2,z+1/4
  -x+1/2,-y+1/2,z+1/2
  y+1/2,-x,z+3/4
  x,-y+1/2,-z+1/4
  y+1/2,x+1/2,-z+1/2
  -x+1/2,y,-z+3/4
  -y,-x,-z
  -x,-y+1/2,-z+1/4
  y,-x,-z
  x-1/2,y,-z-1/4
  -y-1/2,x+1/2,-z-1/2
  -x,y,z
  -y-1/2,-x,z-1/4
  x-1/2,-y+1/2,z-1/2
  y,x+1/2,z+1/4
  x+1/2,y+1/2,z+1/2
  -y+1/2,x+1,z+3/4
  -x+1,-y+1,z+1
  y+1,-x+1/2,z+5/4
  x+1/2,-y+1,-z+3/4
  y+1,x+1,-z+1
  -x+1,y+1/2,-z+5/4
  -y+1/2,-x+1/2,-z+1/2
  -x+1/2,-y+1,-z+3/4
  y+1/2,-x+1/2,-z+1/2
  x,y+1/2,-z+1/4
  -y,x+1,-z
  -x+1/2,y+1/2,z+1/2
  -y,-x+1/2,z+1/4
  x,-y+1,z
  y+1/2,x+1,z+3/4
loop_
 _atom_site_label
 _atom_site_type_symbol
 _atom_site_fract_x
 _atom_site_fract_y
 _atom_site_fract_z
 _atom_site_occupancy
 _atom_site_U_iso_or_equiv
  O1  O-2  0  0.194  0.345  1  0.0
  P1  P+5  0  0  0.5  1  0.0
  Sc1  Sc+3  0  0  0  1  0.0
