# generated using pymatgen
data_4000894
loop_
 _publ_author_name
  'Moreau, P.'
  'Guyomard, D.'
  'Gaubicher, J.'
  'Boucher, F.'
_publ_section_title
'Structure and Stability of Sodium Intercalated Phases in Olivine FePO4'
_journal_issue   14
_journal_name_full   'Chemistry of Materials'
_journal_page_first   4126
_journal_paper_doi   10.1021/cm101377h
_journal_volume   22
_journal_year   2010
_chemical_formula_moiety   'Fe O4 P, Na'
_chemical_formula_structural   'Na1 Fe1 P1 O4'
_chemical_formula_sum   'Fe Na O4 P'
_chemical_formula_weight   173.8
_chemical_name_systematic   'sodium iron phosphate'
_space_group_IT_number   62
_symmetry_cell_setting   orthorhombic
_symmetry_space_group_name_Hall   '-P 2ac 2n'
_symmetry_space_group_name_H-M   'P n m a'
_cell_angle_alpha   90
_cell_angle_beta   90
_cell_angle_gamma   90
_cell_formula_units_Z   4
_cell_length_a   10.4063(6)
_cell_length_b   6.2187(3)
_cell_length_c   4.9469(3)
_cell_measurement_temperature   296
_cell_volume   320.13(3)
_computing_cell_refinement   'JANA2006 (Petricek et al., 2006)'
_computing_data_collection   'DIFFRACplus XRD COMMANDER, BRUKER AXS'
_computing_data_reduction   JANA2006
_computing_molecular_graphics   'Diamond v3.2, Crystal Impact GbR'
_computing_publication_material   JANA2006
_computing_structure_refinement   JANA2006
_computing_structure_solution   'FOX (Favre-Nocolin et al., 2002)'
_diffrn_ambient_temperature   296
_diffrn_detector   Moxtek
_diffrn_detector_type   'Si pin diode'
_diffrn_measurement_device   'SIEMENS D5000'
_diffrn_radiation_type   'Cu K\a'
_diffrn_radiation_wavelength   1.5418
_diffrn_source   'sealed X-ray tube'
_diffrn_source_target   Cu
_exptl_absorpt_coefficient_mu   42.412
_exptl_crystal_density_diffrn   3.605
_exptl_crystal_density_method   'not measured'
_exptl_crystal_F_000   336
_pd_char_colour   black
_pd_char_particle_morphology   'nanometric particles'
_pd_instr_location   ?
_pd_meas_2theta_range_inc   0.03
_pd_meas_2theta_range_max   75.000
_pd_meas_2theta_range_min   9.000
_pd_meas_number_of_points   2201
_pd_meas_scan_method   cont
_pd_prep_temperature   293
_pd_proc_2theta_range_inc   0.03
_pd_proc_2theta_range_max   75
_pd_proc_2theta_range_min   9
_pd_proc_ls_background_function   '14 Legendre polynoms'
_pd_proc_ls_pref_orient_corr   none
_pd_proc_ls_profile_function   Lorentzian
_pd_proc_ls_prof_R_factor   0.0516
_pd_proc_ls_prof_wR_expected   0.0571
_pd_proc_ls_prof_wR_factor   0.0673
_pd_spec_mounting   'powder deposited on a glass slide'
_pd_spec_mount_mode   reflection
_pd_spec_shape   flat_sheet
_pd_spec_size_axial   20
_pd_spec_size_equat   20
_pd_spec_size_thick   0.1
_refine_diff_density_max   0.12
_refine_diff_density_min   -0.12
_refine_ls_extinction_method   none
_refine_ls_goodness_of_fit_all   1.18
_refine_ls_number_constraints   2
_refine_ls_number_parameters   42
_refine_ls_number_restraints   0
_refine_ls_R_factor_all   0.0163
_refine_ls_R_factor_gt   0.0163
_refine_ls_R_I_factor   0.0258
_refine_ls_shift/su_max   0.0034
_refine_ls_shift/su_mean   0.0005
_refine_ls_weighting_scheme   sigma
_refine_ls_wR_factor_gt   0.0183
_refine_ls_wR_factor_ref   0.0183
_cod_data_source_file   cm101377h_si_002.cif
_cod_data_source_block   NaFePO4
_cod_original_formula_sum   'Fe1 Na1 O4 P1'
_cod_database_code   4000894
loop_
 _symmetry_equiv_pos_site_id
 _symmetry_equiv_pos_as_xyz
  1  x,y,z
  2  -x+1/2,-y,z+1/2
  3  -x,y+1/2,-z
  4  x+1/2,-y+1/2,-z+1/2
  5  -x,-y,-z
  6  x+1/2,y,-z+1/2
  7  x,-y+1/2,z
  8  -x+1/2,y+1/2,z+1/2
loop_
 _atom_site_label
 _atom_site_type_symbol
 _atom_site_fract_x
 _atom_site_fract_y
 _atom_site_fract_z
 _atom_site_adp_type
 _atom_site_U_iso_or_equiv
 _atom_site_symmetry_multiplicity
 _atom_site_occupancy
 _atom_site_calc_flag
  Na1  Na  0  0  0  Uani  0.029(4)  4  1.003(12)  d
  Fe1  Fe  0.2870(2)  0.75  0.9863(8)  Uiso  0.0159(16)  4  1  d
  P1  P  0.1083(4)  0.75  0.4426(10)  Uiso  0.012(2)  4  1  d
  O1  O  0.1140(11)  0.75  0.7524(19)  Uiso  0.012(2)  4  1  d
  O2  O  0.4685(11)  0.75  0.1611(19)  Uiso  0.012(2)  4  1  d
  O3  O  0.1755(9)  0.9446(12)  0.3118(12)  Uiso  0.012(2)  8  1  d
loop_
 _atom_site_aniso_label
 _atom_site_aniso_type_symbol
 _atom_site_aniso_U_11
 _atom_site_aniso_U_22
 _atom_site_aniso_U_33
 _atom_site_aniso_U_12
 _atom_site_aniso_U_13
 _atom_site_aniso_U_23
  Na1  Na  0.039(9)  0.029(6)  0.019(7)  0.015(4)  -0.002(9)
  -0.002(7)
loop_
 _atom_type_symbol
 _atom_type_scat_dispersion_real
 _atom_type_scat_dispersion_imag
 _atom_type_scat_source
  Na  0.138  0.127
  'International Tables Vol C tables 4.2.6.8 and 6.1.1.1'
  Fe  -1.091  3.192
  'International Tables Vol C tables 4.2.6.8 and 6.1.1.1'
  P  0.299  0.441
  'International Tables Vol C tables 4.2.6.8 and 6.1.1.1'
  O  0.052  0.034
  'International Tables Vol C tables 4.2.6.8 and 6.1.1.1'
loop_
 _geom_angle_atom_site_label_1
 _geom_angle_atom_site_label_2
 _geom_angle_atom_site_label_3
 _geom_angle_site_symmetry_1
 _geom_angle_site_symmetry_3
 _geom_angle
 _geom_angle_publ_flag
  O1  Na1  O1  1_544  3_546  180  yes
  O1  Na1  O2  1_544  2_564  89.8(3)  yes
  O1  Na1  O2  1_544  4_455  90.2(3)  yes
  O1  Na1  O3  1_544  1_545  81.6(3)  yes
  O1  Na1  O3  1_544  5_565  98.4(3)  yes
  O1  Na1  O2  3_546  2_564  90.2(3)  yes
  O1  Na1  O2  3_546  4_455  89.8(3)  yes
  O1  Na1  O3  3_546  1_545  98.4(3)  yes
  O1  Na1  O3  3_546  5_565  81.6(3)  yes
  O2  Na1  O2  2_564  4_455  180  yes
  O2  Na1  O3  2_564  1_545  116.9(3)  yes
  O2  Na1  O3  2_564  5_565  63.1(3)  yes
  O2  Na1  O3  4_455  1_545  63.1(3)  yes
  O2  Na1  O3  4_455  5_565  116.9(3)  yes
  O3  Na1  O3  1_545  5_565  180  yes
  O1  Fe1  O2  .  1_556  171.9(4)  yes
  O1  Fe1  O3  .  1_556  87.4(3)  yes
  O1  Fe1  O3  .  2_575  86.3(3)  yes
  O1  Fe1  O3  .  7_566  87.4(3)  yes
  O1  Fe1  O3  .  8_545  86.3(3)  yes
  O2  Fe1  O3  1_556  1_556  99.5(3)  yes
  O2  Fe1  O3  1_556  2_575  90.1(3)  yes
  O2  Fe1  O3  1_556  7_566  99.5(3)  yes
  O2  Fe1  O3  1_556  8_545  90.1(3)  yes
  O3  Fe1  O3  1_556  2_575  84.7(3)  yes
  O3  Fe1  O3  1_556  7_566  62.7(3)  yes
  O3  Fe1  O3  1_556  8_545  147.1(3)  yes
  O3  Fe1  O3  2_575  7_566  147.1(3)  yes
  O3  Fe1  O3  2_575  8_545  126.9(3)  yes
  O3  Fe1  O3  7_566  8_545  84.7(3)  yes
  O1  P1  O2  .  4_465  111.6(6)  yes
  O1  P1  O3  .  .  113.7(4)  yes
  O1  P1  O3  .  7_565  113.7(4)  yes
  O2  P1  O3  4_465  .  106.7(4)  yes
  O2  P1  O3  4_465  7_565  106.7(4)  yes
  O3  P1  O3  .  7_565  103.6(5)  yes
loop_
 _geom_bond_atom_site_label_1
 _geom_bond_atom_site_label_2
 _geom_bond_site_symmetry_2
 _geom_bond_distance
 _geom_bond_publ_flag
  Na1  O1  1_544  2.307(8)  yes
  Na1  O1  3_546  2.307(8)  yes
  Na1  O2  2_564  2.309(7)  yes
  Na1  O2  4_455  2.309(7)  yes
  Na1  O3  1_545  2.415(8)  yes
  Na1  O3  5_565  2.415(8)  yes
  Fe1  O1  .  2.141(11)  yes
  Fe1  O2  1_556  2.077(11)  yes
  Fe1  O3  1_556  2.324(8)  yes
  Fe1  O3  2_575  2.123(7)  yes
  Fe1  O3  7_566  2.324(8)  yes
  Fe1  O3  8_545  2.123(7)  yes
  P1  O1  .  1.534(10)  yes
  P1  O2  4_465  1.543(12)  yes
  P1  O3  .  1.540(8)  yes
  P1  O3  7_565  1.540(8)  yes
loop_
 _pd_proc_point_id
 _pd_proc_2theta_corrected
 _pd_proc_intensity_net
 _pd_calc_intensity_net
 _pd_proc_ls_weight
  1  9.0300  309.00  307.16  17.58
  2  9.0600  264.00  304.92  16.25
  3  9.0900  303.00  302.75  17.41
  4  9.1200  277.00  300.63  16.64
  5  9.1500  301.00  298.58  17.35
  6  9.1800  303.00  296.59  17.41
  7  9.2100  298.00  294.66  17.26
  8  9.2400  263.00  292.78  16.22
  9  9.2700  294.00  290.96  17.15
  10  9.3000  276.00  289.19  16.61
  11  9.3300  253.00  287.48  15.91
  12  9.3600  282.00  285.82  16.79
  13  9.3900  283.00  284.20  16.82
  14  9.4200  269.00  282.64  16.40
  15  9.4500  318.00  281.12  17.83
  16  9.4800  305.00  279.65  17.46
  17  9.5100  320.00  278.22  17.89
  18  9.5400  334.00  276.83  18.28
  19  9.5700  291.00  275.49  17.06
  20  9.6000  264.00  274.19  16.25
  21  9.6300  308.00  272.93  17.55
  22  9.6600  273.00  271.71  16.52
  23  9.6900  274.00  270.52  16.55
  24  9.7200  269.00  269.37  16.40
  25  9.7500  252.00  268.26  15.87
  26  9.7800  260.00  267.18  16.12
  27  9.8100  263.00  266.14  16.22
  28  9.8400  242.00  265.13  15.56
  29  9.8700  248.00  264.15  15.75
  30  9.9000  255.00  263.20  15.97
  31  9.9300  292.00  262.28  17.09
  32  9.9600  262.00  261.39  16.19
  33  9.9900  257.00  260.52  16.03
  34  10.0200  278.00  259.69  16.67
  35  10.0500  230.00  258.88  15.17
  36  10.0800  256.00  258.09  16.00
  37  10.1100  287.00  257.33  16.94
  38  10.1400  257.00  256.60  16.03
  39  10.1700  267.00  255.88  16.34
  40  10.2000  249.00  255.19  15.78
  41  10.2300  257.00  254.52  16.03
  42  10.2600  222.00  253.87  14.90
  43  10.2900  256.00  253.24  16.00
  44  10.3200  251.00  252.63  15.84
  45  10.3500  290.00  252.04  17.03
  46  10.3800  249.00  251.47  15.78
  47  10.4100  268.00  250.92  16.37
  48  10.4400  247.00  250.38  15.72
  49  10.4700  268.00  249.86  16.37
  50  10.5000  230.00  249.35  15.17
  51  10.5300  251.00  248.86  15.84
  52  10.5600  263.00  248.38  16.22
  53  10.5900  275.00  247.92  16.58
  54  10.6200  253.00  247.47  15.91
  55  10.6500  261.00  247.03  16.16
  56  10.6800  270.00  246.61  16.43
  57  10.7100  266.00  246.20  16.31
  58  10.7400  250.00  245.80  15.81
  59  10.7700  257.00  245.41  16.03
  60  10.8000  263.00  245.03  16.22
  61  10.8300  265.00  244.66  16.28
  62  10.8600  253.00  244.30  15.91
  63  10.8900  234.00  243.95  15.30
  64  10.9200  245.00  243.60  15.65
  65  10.9500  257.00  243.27  16.03
  66  10.9800  265.00  242.95  16.28
  67  11.0100  228.00  242.63  15.10
  68  11.0400  246.00  242.32  15.68
  69  11.0700  235.00  242.01  15.33
  70  11.1000  268.00  241.72  16.37
  71  11.1300  228.00  241.43  15.10
  72  11.1600  229.00  241.14  15.13
  73  11.1900  244.00  240.86  15.62
  74  11.2200  239.00  240.59  15.46
  75  11.2500  249.00  240.32  15.78
  76  11.2800  252.00  240.05  15.87
  77  11.3100  237.00  239.79  15.39
  78  11.3400  246.00  239.54  15.68
  79  11.3700  251.00  239.29  15.84
  80  11.4000  240.00  239.04  15.49
  81  11.4300  236.00  238.79  15.36
  82  11.4600  250.00  238.55  15.81
  83  11.4900  254.00  238.32  15.94
  84  11.5200  213.00  238.08  14.59
  85  11.5500  200.00  237.85  14.14
  86  11.5800  246.00  237.62  15.68
  87  11.6100  238.00  237.39  15.43
  88  11.6400  236.00  237.16  15.36
  89  11.6700  244.00  236.94  15.62
  90  11.7000  220.00  236.71  14.83
  91  11.7300  237.00  236.49  15.39
  92  11.7600  221.00  236.27  14.87
  93  11.7900  226.00  236.05  15.03
  94  11.8200  240.00  235.84  15.49
  95  11.8500  231.00  235.62  15.20
  96  11.8800  222.00  235.40  14.90
  97  11.9100  233.00  235.19  15.26
  98  11.9400  229.00  234.98  15.13
  99  11.9700  229.00  234.76  15.13
  100  12.0000  235.00  234.55  15.33
  101  12.0300  203.00  234.34  14.25
  102  12.0600  246.00  234.12  15.68
  103  12.0900  204.00  233.91  14.28
  104  12.1200  254.00  233.70  15.94
  105  12.1500  212.00  233.48  14.56
  106  12.1800  250.00  233.27  15.81
  107  12.2100  244.00  233.05  15.62
  108  12.2400  224.00  232.84  14.97
  109  12.2700  242.00  232.63  15.56
  110  12.3000  208.00  232.41  14.42
  111  12.3300  208.00  232.20  14.42
  112  12.3600  246.00  231.98  15.68
  113  12.3900  212.00  231.76  14.56
  114  12.4200  224.00  231.55  14.97
  115  12.4500  245.00  231.33  15.65
  116  12.4800  219.00  231.11  14.80
  117  12.5100  218.00  230.89  14.76
  118  12.5400  245.00  230.68  15.65
  119  12.5700  240.00  230.46  15.49
  120  12.6000  201.00  230.23  14.18
  121  12.6300  203.00  230.01  14.25
  122  12.6600  251.00  229.79  15.84
  123  12.6900  229.00  229.57  15.13
  124  12.7200  224.00  229.34  14.97
  125  12.7500  231.00  229.12  15.20
  126  12.7800  221.00  228.89  14.87
  127  12.8100  236.00  228.66  15.36
  128  12.8400  238.00  228.44  15.43
  129  12.8700  233.00  228.21  15.26
  130  12.9000  209.00  227.98  14.46
  131  12.9300  240.00  227.75  15.49
  132  12.9600  232.00  227.52  15.23
  133  12.9900  241.00  227.29  15.52
  134  13.0200  198.00  227.06  14.07
  135  13.0500  230.00  226.83  15.17
  136  13.0800  225.00  226.59  15.00
  137  13.1100  226.00  226.36  15.03
  138  13.1400  211.00  226.13  14.53
  139  13.1700  246.00  225.89  15.68
  140  13.2000  233.00  225.66  15.26
  141  13.2300  224.00  225.42  14.97
  142  13.2600  203.00  225.18  14.25
  143  13.2900  233.00  224.95  15.26
  144  13.3200  229.00  224.71  15.13
  145  13.3500  219.00  224.48  14.80
  146  13.3800  209.00  224.24  14.46
  147  13.4100  246.00  224.00  15.68
  148  13.4400  210.00  223.76  14.49
  149  13.4700  224.00  223.52  14.97
  150  13.5000  210.00  223.29  14.49
  151  13.5300  230.00  223.05  15.17
  152  13.5600  235.00  222.81  15.33
  153  13.5900  228.00  222.57  15.10
  154  13.6200  241.00  222.33  15.52
  155  13.6500  209.00  222.09  14.46
  156  13.6800  255.00  221.86  15.97
  157  13.7100  211.00  221.62  14.53
  158  13.7400  216.00  221.38  14.70
  159  13.7700  219.00  221.14  14.80
  160  13.8000  241.00  220.91  15.52
  161  13.8300  245.00  220.67  15.65
  162  13.8600  218.00  220.44  14.76
  163  13.8900  241.00  220.20  15.52
  164  13.9200  198.00  219.97  14.07
  165  13.9500  201.00  219.73  14.18
  166  13.9800  214.00  219.50  14.63
  167  14.0100  212.00  219.27  14.56
  168  14.0400  240.00  219.04  15.49
  169  14.0700  234.00  218.80  15.30
  170  14.1000  201.00  218.58  14.18
  171  14.1300  213.00  218.35  14.59
  172  14.1600  228.00  218.12  15.10
  173  14.1900  212.00  217.89  14.56
  174  14.2200  200.00  217.67  14.14
  175  14.2500  183.00  217.44  13.53
  176  14.2800  205.00  217.22  14.32
  177  14.3100  209.00  217.00  14.46
  178  14.3400  221.00  216.78  14.87
  179  14.3700  224.00  216.56  14.97
  180  14.4000  182.00  216.35  13.49
  181  14.4300  235.00  216.13  15.33
  182  14.4600  214.00  215.92  14.63
  183  14.4900  205.00  215.71  14.32
  184  14.5200  227.00  215.49  15.07
  185  14.5500  220.00  215.29  14.83
  186  14.5800  203.00  215.08  14.25
  187  14.6100  211.00  214.88  14.53
  188  14.6400  216.00  214.67  14.70
  189  14.6700  214.00  214.47  14.63
  190  14.7000  196.00  214.27  14.00
  191  14.7300  234.00  214.08  15.30
  192  14.7600  180.00  213.88  13.42
  193  14.7900  198.00  213.69  14.07
  194  14.8200  197.00  213.50  14.04
  195  14.8500  233.00  213.32  15.26
  196  14.8800  238.00  213.13  15.43
  197  14.9100  201.00  212.95  14.18
  198  14.9400  220.00  212.77  14.83
  199  14.9700  213.00  212.59  14.59
  200  15.0000  222.00  212.42  14.90
  201  15.0300  230.00  212.25  15.17
  202  15.0600  216.00  212.08  14.70
  203  15.0900  229.00  211.91  15.13
  204  15.1200  220.00  211.75  14.83
  205  15.1500  196.00  211.59  14.00
  206  15.1800  237.00  211.43  15.39
  207  15.2100  202.00  211.28  14.21
  208  15.2400  219.00  211.12  14.80
  209  15.2700  214.00  210.98  14.63
  210  15.3000  223.00  210.83  14.93
  211  15.3300  203.00  210.69  14.25
  212  15.3600  222.00  210.55  14.90
  213  15.3900  174.00  210.41  13.19
  214  15.4200  220.00  210.28  14.83
  215  15.4500  200.00  210.15  14.14
  216  15.4800  222.00  210.02  14.90
  217  15.5100  233.00  209.90  15.26
  218  15.5400  220.00  209.78  14.83
  219  15.5700  237.00  209.67  15.39
  220  15.6000  192.00  209.55  13.86
  221  15.6300  214.00  209.44  14.63
  222  15.6600  209.00  209.34  14.46
  223  15.6900  243.00  209.24  15.59
  224  15.7200  236.00  209.14  15.36
  225  15.7500  222.00  209.04  14.90
  226  15.7800  205.00  208.95  14.32
  227  15.8100  214.00  208.86  14.63
  228  15.8400  201.00  208.78  14.18
  229  15.8700  194.00  208.70  13.93
  230  15.9000  217.00  208.62  14.73
  231  15.9300  227.00  208.55  15.07
  232  15.9600  226.00  208.48  15.03
  233  15.9900  221.00  208.42  14.87
  234  16.0200  243.00  208.35  15.59
  235  16.0500  216.00  208.30  14.70
  236  16.0800  218.00  208.24  14.76
  237  16.1100  203.00  209.97  14.25
  238  16.1400  233.00  210.14  15.26
  239  16.1700  198.00  211.23  14.07
  240  16.2000  209.00  211.46  14.46
  241  16.2300  208.00  211.69  14.42
  242  16.2600  215.00  211.94  14.66
  243  16.2900  225.00  212.22  15.00
  244  16.3200  195.00  212.54  13.96
  245  16.3500  207.00  212.90  14.39
  246  16.3800  233.00  213.32  15.26
  247  16.4100  220.00  213.81  14.83
  248  16.4400  218.00  214.37  14.76
  249  16.4700  207.00  215.01  14.39
  250  16.5000  209.00  215.77  14.46
  251  16.5300  233.00  216.66  15.26
  252  16.5600  243.00  217.71  15.59
  253  16.5900  225.00  218.99  15.00
  254  16.6200  240.00  220.56  15.49
  255  16.6500  215.00  222.44  14.66
  256  16.6800  224.00  224.73  14.97
  257  16.7100  241.00  227.57  15.52
  258  16.7400  248.00  231.19  15.75
  259  16.7700  218.00  235.90  14.76
  260  16.8000  228.00  242.19  15.10
  261  16.8300  278.00  250.88  16.67
  262  16.8600  247.00  263.36  15.72
  263  16.8900  322.00  282.20  17.94
  264  16.9200  330.00  312.31  18.17
  265  16.9500  353.00  363.17  18.79
  266  16.9800  488.00  452.39  22.09
  267  17.0100  640.00  605.69  25.30
  268  17.0400  882.00  826.75  29.70
  269  17.0700  1009.00  1019.07  31.76
  270  17.1000  1016.00  1025.69  31.87
  271  17.1300  815.00  847.21  28.55
  272  17.1600  623.00  621.80  24.96
  273  17.1900  463.00  456.68  21.52
  274  17.2200  360.00  363.15  18.97
  275  17.2500  289.00  312.37  17.00
  276  17.2800  261.00  282.90  16.16
  277  17.3100  267.00  264.50  16.34
  278  17.3400  286.00  252.29  16.91
  279  17.3700  248.00  243.81  15.75
  280  17.4000  237.00  237.70  15.39
  281  17.4300  251.00  233.15  15.84
  282  17.4600  223.00  229.70  14.93
  283  17.4900  241.00  227.02  15.52
  284  17.5200  247.00  224.90  15.72
  285  17.5500  248.00  223.21  15.75
  286  17.5800  220.00  221.84  14.83
  287  17.6100  213.00  220.70  14.59
  288  17.6400  214.00  219.76  14.63
  289  17.6700  220.00  219.01  14.83
  290  17.6900  231.00  218.41  15.20
  291  17.7200  211.00  217.92  14.53
  292  17.7500  223.00  217.52  14.93
  293  17.7800  216.00  217.19  14.70
  294  17.8100  223.00  216.93  14.93
  295  17.8400  244.00  216.72  15.62
  296  17.8700  236.00  216.56  15.36
  297  17.9000  221.00  216.44  14.87
  298  17.9300  218.00  216.35  14.76
  299  17.9600  233.00  216.30  15.26
  300  17.9900  235.00  216.27  15.33
  301  18.0200  231.00  216.26  15.20
  302  18.0500  249.00  216.28  15.78
  303  18.0800  227.00  214.58  15.07
  304  18.1100  214.00  213.87  14.63
  305  18.1400  237.00  214.08  15.39
  306  18.1700  201.00  214.29  14.18
  307  18.2000  223.00  214.51  14.93
  308  18.2300  207.00  214.73  14.39
  309  18.2600  228.00  214.95  15.10
  310  18.2900  217.00  215.17  14.73
  311  18.3200  199.00  215.40  14.11
  312  18.3500  219.00  215.63  14.80
  313  18.3800  205.00  215.87  14.32
  314  18.4100  209.00  216.10  14.46
  315  18.4400  243.00  216.34  15.59
  316  18.4700  184.00  216.58  13.56
  317  18.5000  229.00  216.83  15.13
  318  18.5300  203.00  217.07  14.25
  319  18.5600  224.00  217.32  14.97
  320  18.5900  228.00  217.58  15.10
  321  18.6200  250.00  217.83  15.81
  322  18.6500  209.00  218.09  14.46
  323  18.6800  216.00  218.35  14.70
  324  18.7100  236.00  218.61  15.36
  325  18.7400  258.00  218.88  16.06
  326  18.7700  235.00  219.14  15.33
  327  18.8000  249.00  219.41  15.78
  328  18.8300  272.00  219.68  16.49
  329  18.8600  228.00  219.96  15.10
  330  18.8900  201.00  224.24  14.18
  331  18.9200  209.00  226.65  14.46
  332  18.9500  243.00  227.46  15.59
  333  18.9800  232.00  228.24  15.23
  334  19.0100  227.00  229.04  15.07
  335  19.0400  230.00  229.87  15.17
  336  19.0700  214.00  230.76  14.63
  337  19.1000  229.00  231.72  15.13
  338  19.1300  238.00  232.77  15.43
  339  19.1600  234.00  233.90  15.30
  340  19.1900  214.00  235.15  14.63
  341  19.2200  220.00  236.53  14.83
  342  19.2500  233.00  238.06  15.26
  343  19.2800  237.00  239.78  15.39
  344  19.3100  224.00  241.72  14.97
  345  19.3400  231.00  243.95  15.20
  346  19.3700  233.00  246.55  15.26
  347  19.4000  251.00  249.65  15.84
  348  19.4300  235.00  253.25  15.33
  349  19.4600  257.00  257.52  16.03
  350  19.4900  255.00  262.60  15.97
  351  19.5200  249.00  268.81  15.78
  352  19.5500  261.00  276.58  16.16
  353  19.5800  270.00  286.50  16.43
  354  19.6100  276.00  299.49  16.61
  355  19.6400  289.00  317.04  17.00
  356  19.6700  305.00  341.62  17.46
  357  19.7000  337.00  377.56  18.36
  358  19.7300  433.00  432.99  20.81
  359  19.7600  494.00  523.55  22.23
  360  19.7900  691.00  679.12  26.29
  361  19.8200  981.00  949.25  31.32
  362  19.8500  1422.00  1369.46  37.71
  363  19.8800  1864.00  1820.95  43.17
  364  19.9100  2050.00  1995.36  45.28
  365  19.9400  1724.00  1766.14  41.52
  366  19.9700  1354.00  1336.68  36.80
  367  20.0000  955.00  933.45  30.90
  368  20.0300  625.00  665.67  25.00
  369  20.0600  480.00  515.13  21.91
  370  20.0900  448.00  429.49  21.17
  371  20.1200  338.00  377.43  18.38
  372  20.1500  318.00  343.72  17.83
  373  20.1800  323.00  320.73  17.97
  374  20.2100  326.00  304.40  18.06
  375  20.2400  263.00  292.42  16.22
  376  20.2700  275.00  283.39  16.58
  377  20.3000  242.00  276.45  15.56
  378  20.3300  223.00  271.00  14.93
  379  20.3600  256.00  266.67  16.00
  380  20.3900  239.00  263.18  15.46
  381  20.4200  231.00  260.31  15.20
  382  20.4500  240.00  257.90  15.49
  383  20.4800  264.00  255.91  16.25
  384  20.5100  239.00  254.27  15.46
  385  20.5400  238.00  252.93  15.43
  386  20.5700  223.00  251.83  14.93
  387  20.6000  246.00  250.93  15.68
  388  20.6300  236.00  250.17  15.36
  389  20.6600  210.00  249.54  14.49
  390  20.6900  250.00  249.02  15.81
  391  20.7200  258.00  248.59  16.06
  392  20.7500  211.00  248.23  14.53
  393  20.7800  240.00  247.95  15.49
  394  20.8100  228.00  247.72  15.10
  395  20.8400  240.00  247.54  15.49
  396  20.8700  212.00  247.40  14.56
  397  20.9000  216.00  247.31  14.70
  398  20.9300  241.00  247.24  15.52
  399  20.9600  214.00  243.56  14.63
  400  20.9900  248.00  241.90  15.75
  401  21.0200  234.00  242.20  15.30
  402  21.0500  266.00  242.50  16.31
  403  21.0800  247.00  242.80  15.72
  404  21.1100  220.00  243.10  14.83
  405  21.1400  230.00  243.39  15.17
  406  21.1700  240.00  243.68  15.49
  407  21.2000  229.00  243.98  15.13
  408  21.2300  253.00  246.82  15.91
  409  21.2600  261.00  247.38  16.16
  410  21.2900  231.00  249.15  15.20
  411  21.3200  245.00  249.79  15.65
  412  21.3500  245.00  250.40  15.65
  413  21.3800  252.00  251.03  15.87
  414  21.4100  271.00  251.67  16.46
  415  21.4400  229.00  252.35  15.13
  416  21.4700  277.00  253.07  16.64
  417  21.5000  264.00  253.84  16.25
  418  21.5300  243.00  254.66  15.59
  419  21.5600  222.00  255.55  14.90
  420  21.5900  244.00  256.52  15.62
  421  21.6200  249.00  257.58  15.78
  422  21.6500  250.00  258.74  15.81
  423  21.6800  236.00  260.05  15.36
  424  21.7100  248.00  261.51  15.75
  425  21.7400  287.00  263.19  16.94
  426  21.7700  252.00  265.16  15.87
  427  21.8000  276.00  267.45  16.61
  428  21.8300  272.00  270.10  16.49
  429  21.8600  266.00  273.22  16.31
  430  21.8900  292.00  276.91  17.09
  431  21.9200  270.00  282.16  16.43
  432  21.9500  281.00  287.83  16.76
  433  21.9800  278.00  295.39  16.67
  434  22.0100  273.00  304.74  16.52
  435  22.0400  337.00  317.24  18.36
  436  22.0700  336.00  334.54  18.33
  437  22.1000  357.00  359.50  18.89
  438  22.1300  385.00  397.29  19.62
  439  22.1600  462.00  457.73  21.49
  440  22.1900  594.00  559.60  24.37
  441  22.2200  728.00  734.84  26.98
  442  22.2500  1151.00  1010.76  33.93
  443  22.2800  1321.00  1322.89  36.35
  444  22.3100  1419.00  1474.10  37.67
  445  22.3400  1381.00  1363.36  37.16
  446  22.3700  1141.00  1105.60  33.78
  447  22.4000  838.00  826.43  28.95
  448  22.4300  622.00  616.46  24.94
  449  22.4600  489.00  491.06  22.11
  450  22.4900  407.00  419.55  20.17
  451  22.5200  368.00  376.78  19.18
  452  22.5500  369.00  349.73  19.21
  453  22.5800  357.00  331.88  18.89
  454  22.6100  298.00  319.78  17.26
  455  22.6400  307.00  311.58  17.52
  456  22.6700  291.00  306.22  17.06
  457  22.7000  292.00  303.14  17.09
  458  22.7300  319.00  302.13  17.86
  459  22.7600  322.00  303.33  17.94
  460  22.7900  285.00  307.27  16.88
  461  22.8200  333.00  315.14  18.25
  462  22.8500  356.00  329.36  18.87
  463  22.8800  350.00  354.72  18.71
  464  22.9100  423.00  399.80  20.57
  465  22.9400  495.00  473.45  22.25
  466  22.9700  560.00  563.13  23.66
  467  23.0000  611.00  615.93  24.72
  468  23.0300  585.00  594.37  24.19
  469  23.0600  506.00  525.91  22.49
  470  23.0900  466.00  445.00  21.59
  471  23.1200  394.00  379.28  19.85
  472  23.1500  340.00  338.09  18.44
  473  23.1800  304.00  314.27  17.44
  474  23.2100  327.00  299.92  18.08
  475  23.2400  306.00  290.71  17.49
  476  23.2700  295.00  284.46  17.18
  477  23.3000  301.00  280.02  17.35
  478  23.3300  280.00  276.74  16.73
  479  23.3600  307.00  274.24  17.52
  480  23.3900  281.00  269.69  16.76
  481  23.4200  298.00  268.28  17.26
  482  23.4500  294.00  271.64  17.15
  483  23.4800  265.00  271.39  16.28
  484  23.5100  284.00  274.01  16.85
  485  23.5400  281.00  274.18  16.76
  486  23.5700  283.00  274.40  16.82
  487  23.6000  267.00  274.71  16.34
  488  23.6300  290.00  275.14  17.03
  489  23.6600  268.00  275.69  16.37
  490  23.6900  298.00  276.38  17.26
  491  23.7200  286.00  277.21  16.91
  492  23.7500  303.00  278.88  17.41
  493  23.7800  289.00  280.07  17.00
  494  23.8100  325.00  281.76  18.03
  495  23.8400  287.00  283.34  16.94
  496  23.8700  290.00  285.15  17.03
  497  23.9000  301.00  287.24  17.35
  498  23.9300  303.00  289.67  17.41
  499  23.9600  289.00  292.50  17.00
  500  23.9900  331.00  295.88  18.19
  501  24.0200  335.00  300.00  18.30
  502  24.0500  309.00  304.77  17.58
  503  24.0800  312.00  310.42  17.66
  504  24.1100  324.00  316.38  18.00
  505  24.1400  350.00  324.48  18.71
  506  24.1700  315.00  334.07  17.75
  507  24.2000  342.00  346.54  18.49
  508  24.2300  362.00  362.44  19.03
  509  24.2600  402.00  383.15  20.05
  510  24.2900  395.00  410.86  19.87
  511  24.3200  438.00  449.06  20.93
  512  24.3500  481.00  503.68  21.93
  513  24.3800  586.00  585.22  24.21
  514  24.4100  744.00  713.13  27.28
  515  24.4400  998.00  924.38  31.59
  516  24.4700  1320.00  1283.79  36.33
  517  24.5000  1862.00  1857.57  43.15
  518  24.5300  2538.00  2548.54  50.38
  519  24.5600  2829.00  2959.84  53.19
  520  24.5900  2735.00  2822.52  52.30
  521  24.6200  2369.00  2346.34  48.67
  522  24.6500  1773.00  1758.90  42.11
  523  24.6800  1282.00  1252.94  35.81
  524  24.7100  1015.00  929.22  31.86
  525  24.7400  790.00  755.07  28.11
  526  24.7700  643.00  677.14  25.36
  527  24.8000  672.00  667.07  25.92
  528  24.8300  675.00  695.74  25.98
  529  24.8600  701.00  708.33  26.48
  530  24.8900  660.00  667.79  25.69
  531  24.9200  588.00  594.40  24.25
  532  24.9500  529.00  511.74  23.00
  533  24.9800  456.00  440.07  21.35
  534  25.0100  401.00  390.72  20.02
  535  25.0400  369.00  359.52  19.21
  536  25.0700  353.00  339.05  18.79
  537  25.1000  346.00  324.74  18.60
  538  25.1300  339.00  314.11  18.41
  539  25.1600  343.00  305.85  18.52
  540  25.1900  344.00  299.33  18.55
  541  25.2200  333.00  294.01  18.25
  542  25.2500  323.00  289.67  17.97
  543  25.2800  309.00  286.03  17.58
  544  25.3100  319.00  282.93  17.86
  545  25.3400  268.00  280.25  16.37
  546  25.3700  318.00  277.91  17.83
  547  25.4000  291.00  275.83  17.06
  548  25.4300  305.00  273.97  17.46
  549  25.4600  341.00  272.29  18.47
  550  25.4900  277.00  270.78  16.64
  551  25.5200  304.00  269.40  17.44
  552  25.5500  276.00  268.15  16.61
  553  25.5800  272.00  267.00  16.49
  554  25.6100  278.00  265.93  16.67
  555  25.6400  292.00  264.95  17.09
  556  25.6700  268.00  264.02  16.37
  557  25.7000  280.00  257.45  16.73
  558  25.7300  269.00  256.92  16.40
  559  25.7600  272.00  253.62  16.49
  560  25.7900  264.00  253.27  16.25
  561  25.8200  279.00  252.93  16.70
  562  25.8500  284.00  252.60  16.85
  563  25.8800  265.00  252.27  16.28
  564  25.9100  255.00  251.95  15.97
  565  25.9400  247.00  251.63  15.72
  566  25.9700  290.00  251.30  17.03
  567  26.0000  258.00  250.32  16.06
  568  26.0300  296.00  250.04  17.20
  569  26.0600  256.00  249.42  16.00
  570  26.0900  273.00  249.15  16.52
  571  26.1200  285.00  248.88  16.88
  572  26.1500  272.00  248.60  16.49
  573  26.1800  257.00  248.32  16.03
  574  26.2100  281.00  248.03  16.76
  575  26.2400  280.00  247.74  16.73
  576  26.2700  239.00  247.45  15.46
  577  26.3000  220.00  247.15  14.83
  578  26.3300  269.00  246.85  16.40
  579  26.3600  282.00  246.55  16.79
  580  26.3900  250.00  246.25  15.81
  581  26.4200  228.00  245.94  15.10
  582  26.4500  260.00  245.63  16.12
  583  26.4800  261.00  245.32  16.16
  584  26.5100  259.00  245.00  16.09
  585  26.5400  261.00  244.68  16.16
  586  26.5700  263.00  244.35  16.22
  587  26.6000  256.00  244.03  16.00
  588  26.6300  233.00  243.70  15.26
  589  26.6600  292.00  243.37  17.09
  590  26.6900  229.00  243.03  15.13
  591  26.7200  209.00  242.69  14.46
  592  26.7500  217.00  242.35  14.73
  593  26.7800  214.00  242.01  14.63
  594  26.8100  227.00  241.66  15.07
  595  26.8400  235.00  241.31  15.33
  596  26.8700  244.00  240.96  15.62
  597  26.9000  246.00  240.60  15.68
  598  26.9300  242.00  240.24  15.56
  599  26.9600  260.00  239.88  16.12
  600  26.9900  255.00  239.52  15.97
  601  27.0200  231.00  239.15  15.20
  602  27.0500  257.00  238.79  16.03
  603  27.0800  221.00  238.41  14.87
  604  27.1100  246.00  238.04  15.68
  605  27.1400  230.00  237.66  15.17
  606  27.1700  249.00  237.29  15.78
  607  27.2000  214.00  236.90  14.63
  608  27.2300  240.00  236.52  15.49
  609  27.2600  230.00  236.14  15.17
  610  27.2900  276.00  235.75  16.61
  611  27.3200  273.00  235.36  16.52
  612  27.3500  218.00  234.96  14.76
  613  27.3800  221.00  234.57  14.87
  614  27.4100  252.00  234.17  15.87
  615  27.4400  222.00  233.77  14.90
  616  27.4700  233.00  233.37  15.26
  617  27.5000  221.00  232.96  14.87
  618  27.5300  204.00  232.56  14.28
  619  27.5600  225.00  236.55  15.00
  620  27.5900  193.00  236.90  13.89
  621  27.6200  204.00  238.90  14.28
  622  27.6500  235.00  239.17  15.33
  623  27.6800  245.00  239.24  15.65
  624  27.7100  245.00  239.35  15.65
  625  27.7400  216.00  239.49  14.70
  626  27.7700  255.00  239.68  15.97
  627  27.8000  244.00  239.93  15.62
  628  27.8300  227.00  240.25  15.07
  629  27.8600  237.00  240.64  15.39
  630  27.8900  222.00  241.12  14.90
  631  27.9200  224.00  241.70  14.97
  632  27.9500  247.00  242.39  15.72
  633  27.9800  212.00  243.22  14.56
  634  28.0100  188.00  244.20  13.71
  635  28.0400  209.00  245.38  14.46
  636  28.0700  214.00  246.79  14.63
  637  28.1000  233.00  248.51  15.26
  638  28.1300  226.00  250.64  15.03
  639  28.1600  233.00  253.25  15.26
  640  28.1900  234.00  256.27  15.30
  641  28.2200  228.00  259.87  15.10
  642  28.2500  265.00  264.12  16.28
  643  28.2800  244.00  269.24  15.62
  644  28.3100  250.00  275.52  15.81
  645  28.3400  283.00  283.32  16.82
  646  28.3700  237.00  293.15  15.39
  647  28.4000  295.00  305.76  17.18
  648  28.4300  289.00  322.23  17.00
  649  28.4600  315.00  344.24  17.75
  650  28.4900  324.00  374.44  18.00
  651  28.5200  372.00  417.17  19.29
  652  28.5500  477.00  479.86  21.84
  653  28.5800  558.00  575.67  23.62
  654  28.6100  778.00  729.20  27.89
  655  28.6400  1051.00  983.75  32.42
  656  28.6700  1435.00  1387.28  37.88
  657  28.7000  1805.00  1891.59  42.49
  658  28.7300  2090.00  2244.17  45.72
  659  28.7600  2144.00  2232.29  46.30
  660  28.7900  1876.00  1970.70  43.31
  661  28.8200  1579.00  1598.18  39.74
  662  28.8500  1246.00  1195.30  35.30
  663  28.8800  957.00  868.80  30.94
  664  28.9100  723.00  655.08  26.89
  665  28.9400  575.00  524.09  23.98
  666  28.9700  463.00  441.91  21.52
  667  29.0000  368.00  387.76  19.18
  668  29.0300  355.00  350.33  18.84
  669  29.0600  343.00  323.37  18.52
  670  29.0900  317.00  303.29  17.80
  671  29.1200  291.00  287.88  17.06
  672  29.1500  263.00  275.77  16.22
  673  29.1800  283.00  266.06  16.82
  674  29.2100  271.00  258.12  16.46
  675  29.2400  233.00  251.53  15.26
  676  29.2700  238.00  245.98  15.43
  677  29.3000  227.00  241.23  15.07
  678  29.3300  201.00  237.09  14.18
  679  29.3600  228.00  233.37  15.10
  680  29.3900  229.00  230.10  15.13
  681  29.4200  234.00  227.21  15.30
  682  29.4500  233.00  224.63  15.26
  683  29.4800  207.00  222.38  14.39
  684  29.5100  232.00  220.36  15.23
  685  29.5400  205.00  218.53  14.32
  686  29.5700  213.00  216.85  14.59
  687  29.6000  195.00  215.31  13.96
  688  29.6300  221.00  213.87  14.87
  689  29.6600  201.00  212.53  14.18
  690  29.6900  190.00  211.27  13.78
  691  29.7200  204.00  210.09  14.28
  692  29.7500  209.00  208.96  14.46
  693  29.7800  202.00  207.90  14.21
  694  29.8100  201.00  206.88  14.18
  695  29.8400  194.00  205.91  13.93
  696  29.8700  229.00  204.98  15.13
  697  29.9000  211.00  204.09  14.53
  698  29.9300  200.00  198.99  14.14
  699  29.9600  189.00  197.94  13.75
  700  29.9900  198.00  197.34  14.07
  701  30.0200  192.00  194.74  13.86
  702  30.0500  206.00  194.06  14.35
  703  30.0800  179.00  193.59  13.38
  704  30.1100  188.00  193.12  13.71
  705  30.1400  190.00  192.65  13.78
  706  30.1700  223.00  192.18  14.93
  707  30.2000  204.00  191.71  14.28
  708  30.2300  189.00  191.24  13.75
  709  30.2600  210.00  190.77  14.49
  710  30.2900  194.00  197.82  13.93
  711  30.3200  186.00  197.88  13.64
  712  30.3500  207.00  201.27  14.39
  713  30.3800  189.00  201.59  13.75
  714  30.4100  192.00  201.90  13.86
  715  30.4400  173.00  202.21  13.15
  716  30.4700  201.00  202.57  14.18
  717  30.5000  201.00  203.00  14.18
  718  30.5300  199.00  203.51  14.11
  719  30.5600  203.00  204.12  14.25
  720  30.5900  212.00  204.83  14.56
  721  30.6200  204.00  205.65  14.28
  722  30.6500  213.00  206.62  14.59
  723  30.6800  202.00  207.73  14.21
  724  30.7100  212.00  209.03  14.56
  725  30.7400  223.00  210.53  14.93
  726  30.7700  216.00  212.28  14.70
  727  30.8000  231.00  214.32  15.20
  728  30.8300  211.00  216.72  14.53
  729  30.8600  189.00  219.58  13.75
  730  30.8900  231.00  223.11  15.20
  731  30.9200  232.00  227.31  15.23
  732  30.9500  235.00  232.03  15.33
  733  30.9800  204.00  237.61  14.28
  734  31.0100  213.00  244.20  14.59
  735  31.0400  231.00  251.95  15.20
  736  31.0700  222.00  261.28  14.90
  737  31.1000  244.00  272.67  15.62
  738  31.1300  290.00  286.79  17.03
  739  31.1600  259.00  304.53  16.09
  740  31.1900  318.00  327.22  17.83
  741  31.2200  365.00  356.82  19.10
  742  31.2500  370.00  396.30  19.24
  743  31.2800  409.00  450.38  20.22
  744  31.3100  466.00  526.67  21.59
  745  31.3400  572.00  637.90  23.92
  746  31.3700  728.00  806.75  26.98
  747  31.4000  1015.00  1075.20  31.86
  748  31.4300  1551.00  1513.62  39.38
  749  31.4600  2232.00  2181.95  47.24
  750  31.4900  2978.00  2949.85  54.57
  751  31.5200  3431.00  3389.55  58.57
  752  31.5500  3326.00  3265.94  57.67
  753  31.5800  2886.00  2856.15  53.72
  754  31.6100  2405.00  2331.78  49.04
  755  31.6400  1731.00  1737.85  41.61
  756  31.6700  1234.00  1233.87  35.13
  757  31.7000  902.00  896.30  30.03
  758  31.7300  672.00  686.37  25.92
  759  31.7600  508.00  553.12  22.54
  760  31.7900  431.00  464.61  20.76
  761  31.8200  384.00  403.14  19.60
  762  31.8500  331.00  358.77  18.19
  763  31.8800  306.00  325.68  17.49
  764  31.9100  296.00  300.34  17.20
  765  31.9400  252.00  280.46  15.87
  766  31.9700  211.00  264.58  14.53
  767  32.0000  233.00  251.65  15.26
  768  32.0300  213.00  240.98  14.59
  769  32.0600  238.00  232.05  15.43
  770  32.0900  188.00  224.47  13.71
  771  32.1200  220.00  217.93  14.83
  772  32.1500  194.00  212.14  13.93
  773  32.1800  232.00  206.98  15.23
  774  32.2100  219.00  202.56  14.80
  775  32.2400  205.00  198.63  14.32
  776  32.2700  204.00  195.13  14.28
  777  32.3000  194.00  192.11  13.93
  778  32.3300  208.00  190.60  14.42
  779  32.3600  204.00  188.28  14.28
  780  32.3900  198.00  186.69  14.07
  781  32.4200  178.00  184.83  13.34
  782  32.4500  197.00  183.12  14.04
  783  32.4800  187.00  181.56  13.67
  784  32.5100  184.00  180.13  13.56
  785  32.5400  156.00  178.82  12.49
  786  32.5700  168.00  177.62  12.96
  787  32.6000  199.00  176.52  14.11
  788  32.6300  212.00  175.52  14.56
  789  32.6600  193.00  174.59  13.89
  790  32.6900  197.00  173.75  14.04
  791  32.7200  154.00  172.99  12.41
  792  32.7500  175.00  172.29  13.23
  793  32.7800  166.00  164.51  12.88
  794  32.8100  195.00  164.30  13.96
  795  32.8400  188.00  164.14  13.71
  796  32.8700  183.00  160.61  13.53
  797  32.9000  181.00  160.75  13.45
  798  32.9300  204.00  160.98  14.28
  799  32.9600  187.00  161.32  13.67
  800  32.9900  175.00  161.74  13.23
  801  33.0200  211.00  162.25  14.53
  802  33.0500  195.00  162.91  13.96
  803  33.0800  181.00  163.71  13.45
  804  33.1100  191.00  164.71  13.82
  805  33.1400  178.00  165.95  13.34
  806  33.1700  197.00  167.52  14.04
  807  33.2000  166.00  169.60  12.88
  808  33.2300  201.00  172.17  14.18
  809  33.2600  202.00  175.50  14.21
  810  33.2900  183.00  179.94  13.53
  811  33.3200  188.00  185.83  13.71
  812  33.3500  214.00  193.93  14.63
  813  33.3800  250.00  205.31  15.81
  814  33.4100  243.00  221.77  15.59
  815  33.4400  289.00  253.52  17.00
  816  33.4700  320.00  292.73  17.89
  817  33.5000  392.00  355.71  19.80
  818  33.5300  481.00  455.53  21.93
  819  33.5600  581.00  571.61  24.10
  820  33.5900  621.00  648.13  24.92
  821  33.6200  618.00  641.05  24.86
  822  33.6500  570.00  586.69  23.87
  823  33.6800  503.00  518.27  22.43
  824  33.7100  435.00  434.80  20.86
  825  33.7400  358.00  354.18  18.92
  826  33.7700  303.00  295.57  17.41
  827  33.8000  271.00  258.46  16.46
  828  33.8300  259.00  235.39  16.09
  829  33.8600  242.00  227.11  15.56
  830  33.8900  236.00  218.16  15.36
  831  33.9200  218.00  212.42  14.76
  832  33.9500  224.00  211.97  14.97
  833  33.9800  231.00  210.37  15.20
  834  34.0100  243.00  210.04  15.59
  835  34.0400  233.00  210.82  15.26
  836  34.0700  231.00  212.76  15.20
  837  34.1000  239.00  215.81  15.46
  838  34.1300  231.00  219.67  15.20
  839  34.1600  254.00  224.53  15.94
  840  34.1900  251.00  230.59  15.84
  841  34.2200  221.00  237.87  14.87
  842  34.2500  245.00  246.68  15.65
  843  34.2800  273.00  257.48  16.52
  844  34.3100  264.00  270.89  16.25
  845  34.3400  281.00  287.73  16.76
  846  34.3700  294.00  309.29  17.15
  847  34.4000  375.00  337.55  19.36
  848  34.4300  398.00  374.86  19.95
  849  34.4600  399.00  422.48  19.98
  850  34.4900  454.00  479.83  21.31
  851  34.5200  514.00  550.46  22.67
  852  34.5500  667.00  647.33  25.83
  853  34.5800  742.00  789.59  27.24
  854  34.6100  944.00  1008.44  30.72
  855  34.6400  1297.00  1359.72  36.01
  856  34.6700  1933.00  1908.59  43.97
  857  34.7000  2706.00  2617.02  52.02
  858  34.7300  3109.00  3177.53  55.76
  859  34.7600  3206.00  3249.84  56.62
  860  34.7900  3032.00  2968.21  55.06
  861  34.8200  2575.00  2599.80  50.74
  862  34.8500  2176.00  2146.32  46.65
  863  34.8800  1677.00  1660.28  40.95
  864  34.9100  1267.00  1284.37  35.59
  865  34.9400  1126.00  1062.36  33.56
  866  34.9700  983.00  960.79  31.35
  867  35.0000  977.00  954.14  31.26
  868  35.0300  1018.00  1035.54  31.91
  869  35.0600  1216.00  1228.92  34.87
  870  35.0900  1646.00  1585.61  40.57
  871  35.1200  2287.00  2144.40  47.82
  872  35.1500  2742.00  2785.57  52.36
  873  35.1800  3010.00  3147.87  54.86
  874  35.2100  2908.00  3035.35  53.93
  875  35.2400  2611.00  2699.68  51.10
  876  35.2700  2232.00  2306.22  47.24
  877  35.3000  1854.00  1823.13  43.06
  878  35.3300  1422.00  1345.13  37.71
  879  35.3600  1113.00  986.86  33.36
  880  35.3900  813.00  752.41  28.51
  881  35.4200  614.00  600.87  24.78
  882  35.4500  538.00  499.66  23.19
  883  35.4800  433.00  429.32  20.81
  884  35.5100  407.00  378.43  20.17
  885  35.5400  341.00  340.47  18.47
  886  35.5700  292.00  311.48  17.09
  887  35.6000  291.00  288.81  17.06
  888  35.6300  242.00  270.79  15.56
  889  35.6600  251.00  256.27  15.84
  890  35.6900  234.00  244.44  15.30
  891  35.7200  238.00  234.70  15.43
  892  35.7500  218.00  226.65  14.76
  893  35.7800  215.00  220.01  14.66
  894  35.8100  232.00  214.43  15.23
  895  35.8400  216.00  209.89  14.70
  896  35.8700  202.00  206.14  14.21
  897  35.9000  222.00  203.32  14.90
  898  35.9300  170.00  201.55  13.04
  899  35.9600  228.00  200.70  15.10
  900  35.9900  202.00  201.01  14.21
  901  36.0200  221.00  203.76  14.87
  902  36.0500  205.00  200.28  14.32
  903  36.0800  183.00  206.32  13.53
  904  36.1100  203.00  215.44  14.25
  905  36.1400  243.00  227.25  15.59
  906  36.1700  273.00  248.18  16.52
  907  36.2000  301.00  280.58  17.35
  908  36.2300  306.00  332.90  17.49
  909  36.2600  428.00  414.28  20.69
  910  36.2900  509.00  523.38  22.56
  911  36.3200  586.00  619.05  24.21
  912  36.3500  612.00  642.62  24.74
  913  36.3800  635.00  601.60  25.20
  914  36.4100  541.00  544.43  23.26
  915  36.4400  504.00  476.67  22.45
  916  36.4700  383.00  395.71  19.57
  917  36.5000  306.00  316.36  17.49
  918  36.5300  264.00  265.32  16.25
  919  36.5600  234.00  232.43  15.30
  920  36.5900  215.00  207.94  14.66
  921  36.6200  202.00  193.97  14.21
  922  36.6500  171.00  184.44  13.08
  923  36.6800  184.00  177.80  13.56
  924  36.7100  185.00  173.17  13.60
  925  36.7400  166.00  169.94  12.88
  926  36.7700  172.00  167.76  13.11
  927  36.8000  167.00  166.45  12.92
  928  36.8300  163.00  165.85  12.77
  929  36.8600  168.00  165.82  12.96
  930  36.8900  160.00  166.38  12.65
  931  36.9200  150.00  167.53  12.25
  932  36.9500  170.00  170.19  13.04
  933  36.9800  181.00  172.75  13.45
  934  37.0100  186.00  176.15  13.64
  935  37.0400  167.00  180.62  12.92
  936  37.0700  167.00  186.98  12.92
  937  37.1000  188.00  194.84  13.71
  938  37.1300  203.00  205.33  14.25
  939  37.1600  218.00  219.59  14.76
  940  37.1900  231.00  239.36  15.20
  941  37.2200  286.00  267.58  16.91
  942  37.2500  309.00  309.43  17.58
  943  37.2800  417.00  373.72  20.42
  944  37.3100  484.00  471.34  22.00
  945  37.3400  617.00  601.30  24.84
  946  37.3700  835.00  727.53  28.90
  947  37.4000  901.00  805.93  30.02
  948  37.4300  865.00  853.81  29.41
  949  37.4600  962.00  894.72  31.02
  950  37.4900  864.00  879.30  29.39
  951  37.5200  778.00  784.18  27.89
  952  37.5500  687.00  669.55  26.21
  953  37.5800  574.00  569.64  23.96
  954  37.6100  486.00  473.35  22.05
  955  37.6400  393.00  384.92  19.82
  956  37.6700  304.00  317.86  17.44
  957  37.7000  279.00  271.58  16.70
  958  37.7300  217.00  241.79  14.73
  959  37.7600  203.00  222.76  14.25
  960  37.7900  193.00  208.37  13.89
  961  37.8200  194.00  198.60  13.93
  962  37.8500  183.00  192.17  13.53
  963  37.8800  168.00  187.37  12.96
  964  37.9100  187.00  184.20  13.67
  965  37.9400  165.00  182.43  12.85
  966  37.9700  167.00  181.93  12.92
  967  38.0000  199.00  182.74  14.11
  968  38.0300  175.00  184.99  13.23
  969  38.0600  159.00  188.98  12.61
  970  38.0900  199.00  195.24  14.11
  971  38.1200  199.00  204.67  14.11
  972  38.1500  191.00  218.76  13.82
  973  38.1800  241.00  240.13  15.52
  974  38.2100  259.00  273.63  16.09
  975  38.2400  347.00  326.71  18.63
  976  38.2700  469.00  404.48  21.66
  977  38.3000  483.00  491.81  21.98
  978  38.3300  562.00  543.25  23.71
  979  38.3600  612.00  532.22  24.74
  980  38.3900  506.00  491.33  22.49
  981  38.4200  497.00  447.38  22.29
  982  38.4500  448.00  392.48  21.17
  983  38.4800  365.00  329.98  19.10
  984  38.5100  296.00  277.40  17.20
  985  38.5400  251.00  241.26  15.84
  986  38.5700  226.00  217.97  15.03
  987  38.6000  235.00  202.93  15.33
  988  38.6300  184.00  193.08  13.56
  989  38.6600  193.00  186.63  13.89
  990  38.6900  160.00  182.55  12.65
  991  38.7200  139.00  180.24  11.79
  992  38.7500  175.00  178.34  13.23
  993  38.7800  172.00  179.96  13.11
  994  38.8100  139.00  182.01  11.79
  995  38.8400  182.00  185.66  13.49
  996  38.8700  201.00  189.87  14.18
  997  38.9000  171.00  198.82  13.08
  998  38.9300  220.00  211.08  14.83
  999  38.9600  238.00  228.57  15.43
  1000  38.9900  263.00  255.83  16.22
  1001  39.0200  317.00  298.14  17.80
  1002  39.0500  377.00  363.98  19.42
  1003  39.0800  450.00  455.71  21.21
  1004  39.1100  517.00  547.41  22.74
  1005  39.1400  656.00  587.13  25.61
  1006  39.1700  595.00  562.18  24.39
  1007  39.2000  557.00  515.80  23.60
  1008  39.2300  481.00  467.30  21.93
  1009  39.2600  423.00  405.03  20.57
  1010  39.2900  330.00  336.90  18.17
  1011  39.3200  268.00  281.45  16.37
  1012  39.3500  248.00  243.52  15.75
  1013  39.3800  213.00  218.74  14.59
  1014  39.4100  217.00  202.33  14.73
  1015  39.4400  183.00  191.15  13.53
  1016  39.4700  184.00  183.34  13.56
  1017  39.5000  176.00  177.79  13.27
  1018  39.5300  151.00  173.77  12.29
  1019  39.5600  175.00  170.86  13.23
  1020  39.5900  158.00  168.84  12.57
  1021  39.6200  166.00  167.51  12.88
  1022  39.6500  158.00  166.73  12.57
  1023  39.6800  168.00  166.46  12.96
  1024  39.7100  147.00  166.69  12.12
  1025  39.7400  141.00  166.52  11.87
  1026  39.7700  148.00  167.81  12.17
  1027  39.8000  148.00  169.71  12.17
  1028  39.8300  177.00  171.89  13.30
  1029  39.8600  172.00  175.45  13.11
  1030  39.8900  184.00  180.26  13.56
  1031  39.9200  173.00  186.77  13.15
  1032  39.9500  171.00  195.62  13.08
  1033  39.9800  202.00  207.82  14.21
  1034  40.0100  217.00  225.06  14.73
  1035  40.0400  258.00  250.29  16.06
  1036  40.0700  283.00  288.74  16.82
  1037  40.1000  348.00  348.28  18.65
  1038  40.1300  406.00  434.46  20.15
  1039  40.1600  493.00  532.11  22.20
  1040  40.1900  622.00  593.55  24.94
  1041  40.2200  618.00  587.54  24.86
  1042  40.2500  564.00  547.58  23.75
  1043  40.2800  532.00  508.61  23.07
  1044  40.3100  477.00  463.76  21.84
  1045  40.3400  402.00  409.06  20.05
  1046  40.3700  369.00  358.16  19.21
  1047  40.4000  315.00  316.10  17.75
  1048  40.4300  253.00  281.56  15.91
  1049  40.4600  269.00  255.54  16.40
  1050  40.4900  242.00  235.61  15.56
  1051  40.5200  214.00  217.79  14.63
  1052  40.5500  183.00  200.94  13.53
  1053  40.5800  162.00  188.60  12.73
  1054  40.6100  175.00  179.70  13.23
  1055  40.6400  162.00  172.82  12.73
  1056  40.6700  153.00  168.16  12.37
  1057  40.7000  145.00  164.63  12.04
  1058  40.7300  143.00  161.90  11.96
  1059  40.7600  144.00  159.74  12.00
  1060  40.7900  145.00  158.00  12.04
  1061  40.8200  140.00  156.57  11.83
  1062  40.8500  146.00  155.39  12.08
  1063  40.8800  156.00  154.41  12.49
  1064  40.9100  156.00  153.55  12.49
  1065  40.9400  116.00  152.81  10.77
  1066  40.9700  140.00  152.20  11.83
  1067  41.0000  140.00  151.69  11.83
  1068  41.0300  141.00  151.24  11.87
  1069  41.0600  163.00  150.86  12.77
  1070  41.0900  139.00  150.56  11.79
  1071  41.1200  150.00  150.31  12.25
  1072  41.1500  163.00  150.10  12.77
  1073  41.1800  173.00  149.94  13.15
  1074  41.2100  142.00  149.81  11.92
  1075  41.2400  135.00  149.71  11.62
  1076  41.2700  138.00  149.65  11.75
  1077  41.3000  165.00  149.62  12.85
  1078  41.3300  137.00  149.61  11.70
  1079  41.3600  144.00  149.64  12.00
  1080  41.3900  145.00  149.71  12.04
  1081  41.4200  139.00  149.81  11.79
  1082  41.4500  118.00  149.96  10.86
  1083  41.4800  150.00  150.16  12.25
  1084  41.5100  147.00  150.43  12.12
  1085  41.5400  135.00  150.79  11.62
  1086  41.5700  123.00  151.64  11.09
  1087  41.6000  139.00  152.32  11.79
  1088  41.6300  156.00  152.22  12.49
  1089  41.6600  179.00  153.70  13.38
  1090  41.6900  133.00  155.68  11.53
  1091  41.7200  167.00  158.00  12.92
  1092  41.7500  162.00  162.30  12.73
  1093  41.7800  169.00  168.48  13.00
  1094  41.8100  192.00  175.42  13.86
  1095  41.8400  209.00  179.76  14.46
  1096  41.8700  221.00  179.44  14.87
  1097  41.9000  208.00  176.48  14.42
  1098  41.9300  180.00  173.47  13.42
  1099  41.9600  186.00  170.12  13.64
  1100  41.9900  178.00  165.71  13.34
  1101  42.0200  150.00  161.33  12.25
  1102  42.0500  127.00  157.99  11.27
  1103  42.0800  151.00  155.78  12.29
  1104  42.1100  144.00  154.35  12.00
  1105  42.1400  144.00  153.45  12.00
  1106  42.1700  175.00  152.87  13.23
  1107  42.2000  152.00  152.51  12.33
  1108  42.2300  157.00  152.31  12.53
  1109  42.2600  159.00  152.23  12.61
  1110  42.2900  162.00  152.26  12.73
  1111  42.3200  161.00  152.35  12.69
  1112  42.3500  153.00  152.50  12.37
  1113  42.3800  154.00  152.71  12.41
  1114  42.4100  146.00  152.99  12.08
  1115  42.4400  161.00  153.33  12.69
  1116  42.4700  167.00  153.72  12.92
  1117  42.5000  145.00  154.19  12.04
  1118  42.5300  165.00  154.76  12.85
  1119  42.5600  125.00  155.42  11.18
  1120  42.5900  146.00  156.22  12.08
  1121  42.6200  174.00  157.18  13.19
  1122  42.6500  185.00  158.37  13.60
  1123  42.6800  166.00  159.83  12.88
  1124  42.7100  154.00  161.67  12.41
  1125  42.7400  168.00  164.02  12.96
  1126  42.7700  182.00  167.07  13.49
  1127  42.8000  176.00  171.11  13.27
  1128  42.8300  162.00  176.58  12.73
  1129  42.8600  209.00  184.22  14.46
  1130  42.8900  192.00  195.36  13.86
  1131  42.9200  216.00  212.14  14.70
  1132  42.9500  223.00  237.19  14.93
  1133  42.9800  275.00  270.51  16.58
  1134  43.0100  292.00  302.93  17.09
  1135  43.0400  330.00  318.64  18.17
  1136  43.0700  299.00  315.76  17.29
  1137  43.1000  325.00  308.73  18.03
  1138  43.1300  322.00  301.85  17.94
  1139  43.1600  280.00  286.17  16.73
  1140  43.1900  282.00  261.32  16.79
  1141  43.2200  251.00  237.21  15.84
  1142  43.2500  233.00  218.62  15.26
  1143  43.2800  207.00  203.72  14.39
  1144  43.3100  188.00  191.12  13.71
  1145  43.3400  195.00  181.36  13.96
  1146  43.3700  166.00  174.34  12.88
  1147  43.4000  182.00  169.39  13.49
  1148  43.4300  195.00  165.81  13.96
  1149  43.4600  179.00  163.20  13.38
  1150  43.4900  186.00  161.23  13.64
  1151  43.5200  158.00  159.71  12.57
  1152  43.5500  169.00  158.51  13.00
  1153  43.5800  178.00  157.54  13.34
  1154  43.6100  159.00  156.75  12.61
  1155  43.6400  165.00  156.10  12.85
  1156  43.6700  164.00  155.56  12.81
  1157  43.7000  178.00  155.10  13.34
  1158  43.7300  186.00  154.70  13.64
  1159  43.7600  159.00  154.36  12.61
  1160  43.7900  175.00  154.07  13.23
  1161  43.8200  155.00  153.80  12.45
  1162  43.8500  179.00  153.57  13.38
  1163  43.8800  173.00  153.38  13.15
  1164  43.9100  158.00  153.20  12.57
  1165  43.9400  148.00  153.12  12.17
  1166  43.9700  166.00  152.99  12.88
  1167  44.0000  163.00  152.88  12.77
  1168  44.0300  188.00  152.78  13.71
  1169  44.0600  163.00  152.73  12.77
  1170  44.0900  128.00  152.65  11.31
  1171  44.1200  179.00  152.59  13.38
  1172  44.1500  193.00  152.53  13.89
  1173  44.1800  162.00  152.48  12.73
  1174  44.2100  168.00  152.43  12.96
  1175  44.2400  201.00  152.39  14.18
  1176  44.2700  184.00  152.35  13.56
  1177  44.3000  174.00  152.32  13.19
  1178  44.3300  167.00  152.29  12.92
  1179  44.3600  157.00  152.27  12.53
  1180  44.3900  165.00  152.24  12.85
  1181  44.4200  161.00  152.23  12.69
  1182  44.4500  146.00  152.21  12.08
  1183  44.4800  190.00  152.20  13.78
  1184  44.5100  153.00  152.18  12.37
  1185  44.5400  156.00  151.83  12.49
  1186  44.5700  158.00  151.84  12.57
  1187  44.6000  196.00  151.85  14.00
  1188  44.6300  175.00  151.60  13.23
  1189  44.6600  169.00  151.63  13.00
  1190  44.6900  165.00  151.66  12.85
  1191  44.7200  155.00  151.70  12.45
  1192  44.7500  153.00  151.69  12.37
  1193  44.7800  160.00  151.74  12.65
  1194  44.8100  156.00  151.79  12.49
  1195  44.8400  171.00  151.85  13.08
  1196  44.8700  113.00  151.92  10.63
  1197  44.9000  171.00  152.00  13.08
  1198  44.9300  137.00  152.09  11.70
  1199  44.9600  146.00  152.21  12.08
  1200  44.9900  164.00  152.34  12.81
  1201  45.0200  166.00  152.49  12.88
  1202  45.0500  175.00  152.67  13.23
  1203  45.0800  185.00  152.88  13.60
  1204  45.1100  158.00  153.16  12.57
  1205  45.1400  163.00  153.51  12.77
  1206  45.1700  145.00  153.96  12.04
  1207  45.2000  152.00  154.55  12.33
  1208  45.2300  154.00  155.34  12.41
  1209  45.2600  188.00  156.42  13.71
  1210  45.2900  170.00  157.93  13.04
  1211  45.3200  153.00  160.16  12.37
  1212  45.3500  177.00  163.51  13.30
  1213  45.3800  148.00  169.12  12.17
  1214  45.4100  178.00  175.70  13.34
  1215  45.4400  179.00  181.93  13.38
  1216  45.4700  205.00  184.51  14.32
  1217  45.5000  176.00  183.02  13.27
  1218  45.5300  174.00  179.82  13.19
  1219  45.5600  195.00  177.10  13.96
  1220  45.5900  168.00  173.96  12.96
  1221  45.6200  163.00  169.68  12.77
  1222  45.6500  148.00  165.28  12.17
  1223  45.6800  167.00  161.78  12.92
  1224  45.7100  165.00  159.33  12.85
  1225  45.7400  146.00  157.67  12.08
  1226  45.7700  143.00  156.55  11.96
  1227  45.8000  164.00  155.76  12.81
  1228  45.8300  175.00  155.27  13.23
  1229  45.8600  148.00  154.88  12.17
  1230  45.8900  140.00  154.60  11.83
  1231  45.9200  147.00  154.41  12.12
  1232  45.9500  147.00  154.31  12.12
  1233  45.9800  165.00  154.24  12.85
  1234  46.0100  155.00  154.34  12.45
  1235  46.0400  173.00  154.37  13.15
  1236  46.0700  157.00  154.43  12.53
  1237  46.1000  164.00  154.54  12.81
  1238  46.1300  134.00  154.75  11.58
  1239  46.1600  130.00  154.97  11.40
  1240  46.1900  153.00  155.22  12.37
  1241  46.2200  134.00  155.53  11.58
  1242  46.2500  170.00  155.88  13.04
  1243  46.2800  152.00  156.30  12.33
  1244  46.3100  151.00  156.77  12.29
  1245  46.3400  128.00  157.34  11.31
  1246  46.3700  148.00  157.99  12.17
  1247  46.4000  162.00  158.75  12.73
  1248  46.4300  157.00  159.66  12.53
  1249  46.4600  157.00  160.74  12.53
  1250  46.4900  168.00  162.04  12.96
  1251  46.5200  143.00  163.62  11.96
  1252  46.5500  173.00  165.55  13.15
  1253  46.5800  150.00  167.96  12.25
  1254  46.6100  144.00  171.00  12.00
  1255  46.6400  178.00  174.86  13.34
  1256  46.6700  188.00  179.85  13.71
  1257  46.7000  195.00  186.39  13.96
  1258  46.7300  189.00  195.12  13.75
  1259  46.7600  221.00  207.15  14.87
  1260  46.7900  210.00  224.40  14.49
  1261  46.8200  227.00  251.04  15.07
  1262  46.8500  272.00  289.07  16.49
  1263  46.8800  347.00  341.27  18.63
  1264  46.9100  379.00  397.81  19.47
  1265  46.9400  430.00  433.20  20.74
  1266  46.9700  389.00  429.18  19.72
  1267  47.0000  417.00  403.06  20.42
  1268  47.0300  369.00  379.05  19.21
  1269  47.0600  376.00  357.30  19.39
  1270  47.0900  318.00  327.08  17.83
  1271  47.1200  287.00  290.43  16.94
  1272  47.1500  272.00  257.83  16.49
  1273  47.1800  257.00  234.13  16.03
  1274  47.2100  213.00  218.20  14.59
  1275  47.2400  226.00  207.86  15.03
  1276  47.2700  208.00  201.91  14.42
  1277  47.3000  199.00  199.75  14.11
  1278  47.3300  189.00  200.69  13.75
  1279  47.3600  187.00  203.34  13.67
  1280  47.3900  213.00  205.39  14.59
  1281  47.4200  196.00  205.75  14.00
  1282  47.4500  207.00  206.46  14.39
  1283  47.4800  208.00  210.10  14.42
  1284  47.5100  234.00  216.43  15.30
  1285  47.5400  205.00  221.84  14.32
  1286  47.5700  187.00  221.89  13.67
  1287  47.6000  202.00  216.19  14.21
  1288  47.6300  196.00  209.26  14.00
  1289  47.6600  199.00  204.13  14.11
  1290  47.6900  179.00  199.71  13.38
  1291  47.7200  186.00  194.38  13.64
  1292  47.7500  182.00  188.85  13.49
  1293  47.7800  189.00  184.39  13.75
  1294  47.8100  178.00  180.95  13.34
  1295  47.8400  158.00  178.32  12.57
  1296  47.8700  153.00  176.65  12.37
  1297  47.9000  186.00  175.96  13.64
  1298  47.9300  168.00  175.90  12.96
  1299  47.9600  185.00  176.31  13.60
  1300  47.9900  185.00  177.34  13.60
  1301  48.0200  171.00  179.27  13.08
  1302  48.0500  168.00  182.27  12.96
  1303  48.0800  202.00  186.55  14.21
  1304  48.1100  173.00  192.96  13.15
  1305  48.1400  184.00  200.80  13.56
  1306  48.1700  214.00  211.29  14.63
  1307  48.2000  238.00  225.51  15.43
  1308  48.2300  243.00  245.35  15.59
  1309  48.2600  272.00  274.36  16.49
  1310  48.2900  369.00  316.99  19.21
  1311  48.3200  380.00  379.58  19.49
  1312  48.3500  496.00  463.09  22.27
  1313  48.3800  558.00  548.54  23.62
  1314  48.4100  554.00  594.92  23.54
  1315  48.4400  543.00  581.42  23.30
  1316  48.4700  537.00  538.50  23.17
  1317  48.5000  498.00  501.21  22.32
  1318  48.5300  475.00  466.98  21.79
  1319  48.5600  407.00  419.85  20.17
  1320  48.5900  401.00  361.41  20.02
  1321  48.6200  309.00  307.51  17.58
  1322  48.6500  293.00  266.26  17.12
  1323  48.6800  277.00  240.59  16.64
  1324  48.7100  220.00  220.78  14.83
  1325  48.7400  192.00  206.79  13.86
  1326  48.7700  186.00  196.69  13.64
  1327  48.8000  207.00  190.70  14.39
  1328  48.8300  204.00  185.18  14.28
  1329  48.8600  175.00  180.98  13.23
  1330  48.8900  206.00  177.80  14.35
  1331  48.9200  169.00  175.38  13.00
  1332  48.9500  166.00  173.60  12.88
  1333  48.9800  161.00  172.29  12.69
  1334  49.0100  174.00  171.50  13.19
  1335  49.0400  158.00  171.15  12.57
  1336  49.0700  174.00  171.26  13.19
  1337  49.1000  176.00  171.87  13.27
  1338  49.1300  141.00  173.17  11.87
  1339  49.1600  168.00  175.19  12.96
  1340  49.1900  164.00  178.10  12.81
  1341  49.2200  186.00  181.09  13.64
  1342  49.2500  179.00  183.40  13.38
  1343  49.2800  192.00  183.99  13.86
  1344  49.3100  196.00  184.92  14.00
  1345  49.3400  170.00  186.08  13.04
  1346  49.3700  173.00  188.02  13.15
  1347  49.4000  167.00  190.06  12.92
  1348  49.4300  195.00  192.98  13.96
  1349  49.4600  199.00  196.98  14.11
  1350  49.4900  234.00  202.89  15.30
  1351  49.5200  193.00  211.26  13.89
  1352  49.5500  223.00  222.96  14.93
  1353  49.5800  239.00  239.50  15.46
  1354  49.6100  244.00  263.43  15.62
  1355  49.6400  300.00  298.08  17.32
  1356  49.6700  354.00  345.33  18.81
  1357  49.7000  378.00  398.52  19.44
  1358  49.7300  453.00  437.15  21.28
  1359  49.7600  440.00  443.08  20.98
  1360  49.7900  423.00  425.70  20.57
  1361  49.8200  404.00  408.10  20.10
  1362  49.8500  394.00  397.04  19.85
  1363  49.8800  377.00  383.27  19.42
  1364  49.9100  404.00  362.54  20.10
  1365  49.9400  326.00  342.58  18.06
  1366  49.9700  318.00  331.59  17.83
  1367  50.0000  335.00  332.21  18.30
  1368  50.0300  302.00  343.33  17.38
  1369  50.0600  382.00  367.44  19.54
  1370  50.0900  419.00  405.67  20.47
  1371  50.1200  449.00  463.27  21.19
  1372  50.1500  522.00  549.23  22.85
  1373  50.1800  708.00  678.80  26.61
  1374  50.2100  861.00  865.67  29.34
  1375  50.2400  1113.00  1102.12  33.36
  1376  50.2700  1253.00  1319.62  35.40
  1377  50.3000  1392.00  1408.40  37.31
  1378  50.3300  1263.00  1343.33  35.54
  1379  50.3600  1251.00  1222.84  35.37
  1380  50.3900  1152.00  1127.90  33.94
  1381  50.4200  1018.00  1041.24  31.91
  1382  50.4500  900.00  916.14  30.00
  1383  50.4800  753.00  760.19  27.44
  1384  50.5100  607.00  615.60  24.64
  1385  50.5400  517.00  505.43  22.74
  1386  50.5700  439.00  428.64  20.95
  1387  50.6000  343.00  376.77  18.52
  1388  50.6300  321.00  342.44  17.92
  1389  50.6600  314.00  320.80  17.72
  1390  50.6900  277.00  309.21  16.64
  1391  50.7200  276.00  306.73  16.61
  1392  50.7500  299.00  314.02  17.29
  1393  50.7800  301.00  333.17  17.35
  1394  50.8100  379.00  366.64  19.47
  1395  50.8400  388.00  413.45  19.70
  1396  50.8700  433.00  463.92  20.81
  1397  50.9000  483.00  502.06  21.98
  1398  50.9300  518.00  515.66  22.76
  1399  50.9600  507.00  502.56  22.52
  1400  50.9900  494.00  472.83  22.23
  1401  51.0200  406.00  439.61  20.15
  1402  51.0500  403.00  406.41  20.07
  1403  51.0800  391.00  369.75  19.77
  1404  51.1100  328.00  328.60  18.11
  1405  51.1400  276.00  288.55  16.61
  1406  51.1700  239.00  255.52  15.46
  1407  51.2000  243.00  230.91  15.59
  1408  51.2300  208.00  213.12  14.42
  1409  51.2600  209.00  200.15  14.46
  1410  51.2900  229.00  190.49  15.13
  1411  51.3200  181.00  183.10  13.45
  1412  51.3500  184.00  177.29  13.56
  1413  51.3800  168.00  172.03  12.96
  1414  51.4100  175.00  168.24  13.23
  1415  51.4400  170.00  165.09  13.04
  1416  51.4700  181.00  163.56  13.45
  1417  51.5000  156.00  161.37  12.49
  1418  51.5300  178.00  159.18  13.34
  1419  51.5600  185.00  157.54  13.60
  1420  51.5900  154.00  156.09  12.41
  1421  51.6200  159.00  155.38  12.61
  1422  51.6500  145.00  154.27  12.04
  1423  51.6800  146.00  153.28  12.08
  1424  51.7100  160.00  152.39  12.65
  1425  51.7400  163.00  151.60  12.77
  1426  51.7700  145.00  150.90  12.04
  1427  51.8000  153.00  150.28  12.37
  1428  51.8300  139.00  149.73  11.79
  1429  51.8600  167.00  149.24  12.92
  1430  51.8900  154.00  148.81  12.41
  1431  51.9200  142.00  148.43  11.92
  1432  51.9500  150.00  145.19  12.25
  1433  51.9800  130.00  145.02  11.40
  1434  52.0100  153.00  144.90  12.37
  1435  52.0400  169.00  144.80  13.00
  1436  52.0700  150.00  143.30  12.25
  1437  52.1000  164.00  143.34  12.81
  1438  52.1300  148.00  143.42  12.17
  1439  52.1600  169.00  143.53  13.00
  1440  52.1900  131.00  143.69  11.45
  1441  52.2200  143.00  143.90  11.96
  1442  52.2500  141.00  144.16  11.87
  1443  52.2800  134.00  144.46  11.58
  1444  52.3100  150.00  144.84  12.25
  1445  52.3400  164.00  145.29  12.81
  1446  52.3700  140.00  145.84  11.83
  1447  52.4000  185.00  146.49  13.60
  1448  52.4300  136.00  147.27  11.66
  1449  52.4600  161.00  148.17  12.69
  1450  52.4900  153.00  149.23  12.37
  1451  52.5200  172.00  150.48  13.11
  1452  52.5500  144.00  151.63  12.00
  1453  52.5800  166.00  153.46  12.88
  1454  52.6100  177.00  155.24  13.30
  1455  52.6400  158.00  158.12  12.57
  1456  52.6700  169.00  161.82  13.00
  1457  52.7000  175.00  166.41  13.23
  1458  52.7300  183.00  172.12  13.53
  1459  52.7600  162.00  177.77  12.73
  1460  52.7900  173.00  182.79  13.15
  1461  52.8200  205.00  187.09  14.32
  1462  52.8500  203.00  192.15  14.25
  1463  52.8800  205.00  199.27  14.32
  1464  52.9100  205.00  208.80  14.32
  1465  52.9400  220.00  221.02  14.83
  1466  52.9700  236.00  237.38  15.36
  1467  53.0000  234.00  260.76  15.30
  1468  53.0300  290.00  295.31  17.03
  1469  53.0600  359.00  346.34  18.95
  1470  53.0900  417.00  419.62  20.42
  1471  53.1200  549.00  508.86  23.43
  1472  53.1500  604.00  589.65  24.58
  1473  53.1800  655.00  622.76  25.59
  1474  53.2100  564.00  600.19  23.75
  1475  53.2400  542.00  554.28  23.28
  1476  53.2700  559.00  517.51  23.64
  1477  53.3000  457.00  488.62  21.38
  1478  53.3300  447.00  448.62  21.14
  1479  53.3600  390.00  393.85  19.75
  1480  53.3900  346.00  336.42  18.60
  1481  53.4200  309.00  288.99  17.58
  1482  53.4500  243.00  254.03  15.59
  1483  53.4800  210.00  229.15  14.49
  1484  53.5100  206.00  211.37  14.35
  1485  53.5400  222.00  198.45  14.90
  1486  53.5700  187.00  188.87  13.67
  1487  53.6000  163.00  181.60  12.77
  1488  53.6300  154.00  176.02  12.41
  1489  53.6600  175.00  171.66  13.23
  1490  53.6900  183.00  168.23  13.53
  1491  53.7200  168.00  165.51  12.96
  1492  53.7500  130.00  163.36  11.40
  1493  53.7800  157.00  161.66  12.53
  1494  53.8100  160.00  160.34  12.65
  1495  53.8400  186.00  159.33  13.64
  1496  53.8700  166.00  158.59  12.88
  1497  53.9000  153.00  158.10  12.37
  1498  53.9300  160.00  157.83  12.65
  1499  53.9600  149.00  157.78  12.21
  1500  53.9900  156.00  157.98  12.49
  1501  54.0200  158.00  158.41  12.57
  1502  54.0500  145.00  159.10  12.04
  1503  54.0800  152.00  160.08  12.33
  1504  54.1100  153.00  161.40  12.37
  1505  54.1400  169.00  163.12  13.00
  1506  54.1700  165.00  165.34  12.85
  1507  54.2000  171.00  168.10  13.08
  1508  54.2300  150.00  171.22  12.25
  1509  54.2600  173.00  174.30  13.15
  1510  54.2900  148.00  177.09  12.17
  1511  54.3200  161.00  179.92  12.69
  1512  54.3500  187.00  183.37  13.67
  1513  54.3800  170.00  187.73  13.04
  1514  54.4100  187.00  193.00  13.67
  1515  54.4400  208.00  199.24  14.42
  1516  54.4700  190.00  206.85  13.78
  1517  54.5000  218.00  216.35  14.76
  1518  54.5300  216.00  228.46  14.70
  1519  54.5600  245.00  243.90  15.65
  1520  54.5900  286.00  264.18  16.91
  1521  54.6200  260.00  290.21  16.12
  1522  54.6500  313.00  325.19  17.69
  1523  54.6800  395.00  373.41  19.87
  1524  54.7100  468.00  441.01  21.63
  1525  54.7400  552.00  533.23  23.49
  1526  54.7700  709.00  648.95  26.63
  1527  54.8000  811.00  768.49  28.48
  1528  54.8300  847.00  860.95  29.10
  1529  54.8600  959.00  922.57  30.97
  1530  54.8900  1060.00  984.75  32.56
  1531  54.9200  1084.00  1063.36  32.92
  1532  54.9500  1142.00  1112.97  33.79
  1533  54.9800  1084.00  1079.58  32.92
  1534  55.0100  959.00  976.39  30.97
  1535  55.0400  828.00  862.61  28.77
  1536  55.0700  848.00  774.68  29.12
  1537  55.1000  696.00  699.60  26.38
  1538  55.1300  650.00  614.81  25.50
  1539  55.1600  525.00  521.94  22.91
  1540  55.1900  465.00  436.91  21.56
  1541  55.2200  397.00  369.82  19.92
  1542  55.2500  322.00  320.32  17.94
  1543  55.2800  297.00  284.29  17.23
  1544  55.3100  244.00  257.77  15.62
  1545  55.3400  264.00  237.86  16.25
  1546  55.3700  231.00  222.61  15.20
  1547  55.4000  207.00  210.70  14.39
  1548  55.4300  197.00  201.24  14.04
  1549  55.4600  198.00  193.61  14.07
  1550  55.4900  181.00  187.40  13.45
  1551  55.5200  185.00  182.28  13.60
  1552  55.5500  219.00  178.04  14.80
  1553  55.5800  162.00  174.50  12.73
  1554  55.6100  163.00  171.55  12.77
  1555  55.6400  180.00  169.10  13.42
  1556  55.6700  172.00  167.07  13.11
  1557  55.7000  183.00  165.41  13.53
  1558  55.7300  173.00  164.09  13.15
  1559  55.7600  164.00  163.09  12.81
  1560  55.7900  167.00  162.41  12.92
  1561  55.8200  183.00  162.03  13.53
  1562  55.8500  168.00  161.98  12.96
  1563  55.8800  167.00  162.24  12.92
  1564  55.9100  149.00  162.89  12.21
  1565  55.9400  166.00  163.95  12.88
  1566  55.9700  146.00  165.51  12.08
  1567  56.0000  194.00  167.63  13.93
  1568  56.0300  181.00  170.57  13.45
  1569  56.0600  157.00  174.32  12.53
  1570  56.0900  176.00  179.29  13.27
  1571  56.1200  178.00  185.76  13.34
  1572  56.1500  214.00  194.40  14.63
  1573  56.1800  214.00  206.19  14.63
  1574  56.2100  224.00  222.44  14.97
  1575  56.2400  222.00  245.12  14.90
  1576  56.2700  269.00  275.38  16.40
  1577  56.3000  317.00  310.33  17.80
  1578  56.3300  314.00  339.47  17.72
  1579  56.3600  331.00  350.90  18.19
  1580  56.3900  360.00  345.61  18.97
  1581  56.4200  328.00  337.07  18.11
  1582  56.4500  352.00  334.64  18.76
  1583  56.4800  346.00  335.25  18.60
  1584  56.5100  360.00  330.05  18.97
  1585  56.5400  342.00  317.27  18.49
  1586  56.5700  304.00  304.35  17.44
  1587  56.6000  294.00  298.01  17.15
  1588  56.6300  322.00  303.89  17.94
  1589  56.6600  352.00  321.79  18.76
  1590  56.6900  378.00  352.84  19.44
  1591  56.7200  375.00  394.10  19.36
  1592  56.7500  463.00  436.84  21.52
  1593  56.7800  456.00  457.92  21.35
  1594  56.8100  423.00  446.10  20.57
  1595  56.8400  419.00  415.78  20.47
  1596  56.8700  408.00  387.58  20.20
  1597  56.9000  394.00  369.48  19.85
  1598  56.9300  345.00  350.96  18.57
  1599  56.9600  347.00  323.37  18.63
  1600  56.9900  294.00  288.79  17.15
  1601  57.0200  289.00  255.66  17.00
  1602  57.0500  232.00  229.06  15.23
  1603  57.0800  221.00  209.23  14.87
  1604  57.1100  225.00  194.85  15.00
  1605  57.1400  210.00  184.28  14.49
  1606  57.1700  162.00  176.42  12.73
  1607  57.2000  171.00  170.46  13.08
  1608  57.2300  165.00  165.87  12.85
  1609  57.2600  165.00  162.28  12.85
  1610  57.2900  179.00  159.46  13.38
  1611  57.3200  150.00  157.24  12.25
  1612  57.3500  178.00  155.49  13.34
  1613  57.3800  127.00  154.15  11.27
  1614  57.4100  134.00  153.14  11.58
  1615  57.4400  165.00  152.44  12.85
  1616  57.4700  160.00  152.02  12.65
  1617  57.5000  133.00  151.88  11.53
  1618  57.5300  163.00  152.04  12.77
  1619  57.5600  169.00  152.53  13.00
  1620  57.5900  167.00  154.41  12.92
  1621  57.6200  185.00  155.82  13.60
  1622  57.6500  161.00  157.88  12.69
  1623  57.6800  164.00  160.88  12.81
  1624  57.7100  147.00  165.19  12.12
  1625  57.7400  170.00  171.80  13.04
  1626  57.7700  202.00  180.20  14.21
  1627  57.8000  195.00  190.39  13.96
  1628  57.8300  197.00  200.37  14.04
  1629  57.8600  221.00  207.18  14.87
  1630  57.8900  207.00  209.10  14.39
  1631  57.9200  219.00  206.80  14.80
  1632  57.9500  221.00  202.77  14.87
  1633  57.9800  188.00  199.13  13.71
  1634  58.0100  189.00  196.03  13.75
  1635  58.0400  188.00  192.50  13.71
  1636  58.0700  176.00  188.11  13.27
  1637  58.1000  200.00  183.59  14.14
  1638  58.1300  180.00  180.05  13.42
  1639  58.1600  174.00  178.00  13.19
  1640  58.1900  170.00  178.62  13.04
  1641  58.2200  179.00  181.21  13.38
  1642  58.2500  190.00  185.22  13.78
  1643  58.2800  197.00  189.49  14.04
  1644  58.3100  173.00  193.10  13.15
  1645  58.3400  181.00  197.38  13.45
  1646  58.3700  204.00  203.64  14.28
  1647  58.4000  205.00  213.35  14.32
  1648  58.4300  218.00  227.54  14.76
  1649  58.4600  240.00  247.40  15.49
  1650  58.4900  276.00  274.59  16.61
  1651  58.5200  313.00  308.87  17.69
  1652  58.5500  341.00  343.87  18.47
  1653  58.5800  387.00  366.38  19.67
  1654  58.6100  373.00  370.98  19.31
  1655  58.6400  386.00  365.42  19.65
  1656  58.6700  363.00  363.21  19.05
  1657  58.7000  374.00  367.60  19.34
  1658  58.7300  352.00  369.64  18.76
  1659  58.7600  369.00  358.92  19.21
  1660  58.7900  345.00  336.23  18.57
  1661  58.8200  304.00  309.62  17.44
  1662  58.8500  278.00  286.49  16.67
  1663  58.8800  275.00  268.62  16.58
  1664  58.9100  217.00  253.73  14.73
  1665  58.9400  238.00  240.05  15.43
  1666  58.9700  225.00  227.48  15.00
  1667  59.0000  212.00  216.96  14.56
  1668  59.0300  188.00  209.42  13.71
  1669  59.0600  236.00  205.04  15.36
  1670  59.0900  191.00  203.65  13.82
  1671  59.1200  187.00  205.01  13.67
  1672  59.1500  219.00  209.02  14.80
  1673  59.1800  205.00  215.88  14.32
  1674  59.2100  225.00  226.20  15.00
  1675  59.2400  206.00  241.15  14.35
  1676  59.2700  272.00  263.10  16.49
  1677  59.3000  324.00  294.16  18.00
  1678  59.3300  368.00  338.32  19.18
  1679  59.3600  412.00  398.06  20.30
  1680  59.3900  469.00  468.89  21.66
  1681  59.4200  496.00  531.75  22.27
  1682  59.4500  509.00  559.46  22.56
  1683  59.4800  499.00  543.49  22.34
  1684  59.5100  512.00  506.08  22.63
  1685  59.5400  457.00  473.33  21.38
  1686  59.5700  429.00  452.01  20.71
  1687  59.6000  429.00  431.07  20.71
  1688  59.6300  390.00  398.39  19.75
  1689  59.6600  359.00  355.16  18.95
  1690  59.6900  328.00  311.55  18.11
  1691  59.7200  282.00  275.31  16.79
  1692  59.7500  267.00  248.05  16.34
  1693  59.7800  201.00  228.78  14.18
  1694  59.8100  197.00  215.73  14.04
  1695  59.8400  228.00  207.56  15.10
  1696  59.8700  200.00  203.42  14.14
  1697  59.9000  197.00  202.25  14.04
  1698  59.9300  210.00  202.54  14.49
  1699  59.9600  195.00  202.44  13.96
  1700  59.9900  180.00  201.15  13.42
  1701  60.0200  191.00  198.94  13.82
  1702  60.0500  195.00  195.90  13.96
  1703  60.0800  181.00  191.89  13.45
  1704  60.1100  208.00  187.23  14.42
  1705  60.1400  167.00  182.35  12.92
  1706  60.1700  154.00  177.67  12.41
  1707  60.2000  158.00  173.21  12.57
  1708  60.2300  175.00  168.80  13.23
  1709  60.2600  170.00  164.54  13.04
  1710  60.2900  157.00  160.82  12.53
  1711  60.3200  170.00  157.93  13.04
  1712  60.3500  154.00  155.83  12.41
  1713  60.3800  150.00  154.42  12.25
  1714  60.4100  164.00  153.79  12.81
  1715  60.4400  146.00  152.99  12.08
  1716  60.4700  121.00  153.09  11.00
  1717  60.5000  175.00  153.63  13.23
  1718  60.5300  135.00  154.66  11.62
  1719  60.5600  156.00  156.31  12.49
  1720  60.5900  161.00  158.48  12.69
  1721  60.6200  170.00  162.05  13.04
  1722  60.6500  153.00  167.02  12.37
  1723  60.6800  180.00  173.80  13.42
  1724  60.7100  202.00  181.87  14.21
  1725  60.7400  171.00  189.30  13.08
  1726  60.7700  201.00  193.57  14.18
  1727  60.8000  204.00  193.76  14.28
  1728  60.8300  186.00  192.19  13.64
  1729  60.8600  175.00  191.65  13.23
  1730  60.8900  187.00  193.15  13.67
  1731  60.9200  195.00  195.88  13.96
  1732  60.9500  195.00  198.77  13.96
  1733  60.9800  205.00  202.18  14.32
  1734  61.0100  215.00  208.05  14.66
  1735  61.0400  228.00  218.66  15.10
  1736  61.0700  212.00  235.81  14.56
  1737  61.1000  271.00  259.90  16.46
  1738  61.1300  281.00  287.51  16.76
  1739  61.1600  323.00  309.32  17.97
  1740  61.1900  305.00  314.99  17.46
  1741  61.2200  293.00  304.17  17.12
  1742  61.2500  267.00  287.24  16.34
  1743  61.2800  283.00  273.82  16.82
  1744  61.3100  272.00  264.32  16.49
  1745  61.3400  265.00  255.71  16.28
  1746  61.3700  234.00  242.16  15.30
  1747  61.4000  225.00  224.13  15.00
  1748  61.4300  214.00  205.89  14.63
  1749  61.4600  205.00  190.53  14.32
  1750  61.4900  201.00  178.27  14.18
  1751  61.5200  168.00  169.56  12.96
  1752  61.5500  142.00  163.15  11.92
  1753  61.5800  167.00  158.34  12.92
  1754  61.6100  153.00  154.71  12.37
  1755  61.6400  155.00  151.93  12.45
  1756  61.6700  158.00  149.77  12.57
  1757  61.7000  158.00  148.10  12.57
  1758  61.7300  147.00  146.81  12.12
  1759  61.7600  148.00  145.82  12.17
  1760  61.7900  150.00  145.09  12.25
  1761  61.8200  142.00  144.59  11.92
  1762  61.8500  133.00  144.24  11.53
  1763  61.8800  148.00  144.15  12.17
  1764  61.9100  124.00  144.25  11.14
  1765  61.9400  144.00  144.53  12.00
  1766  61.9700  151.00  145.11  12.29
  1767  62.0000  140.00  145.93  11.83
  1768  62.0300  140.00  147.13  11.83
  1769  62.0600  147.00  148.75  12.12
  1770  62.0900  160.00  150.92  12.65
  1771  62.1200  167.00  153.92  12.92
  1772  62.1500  180.00  158.10  13.42
  1773  62.1800  155.00  163.97  12.45
  1774  62.2100  175.00  172.20  13.23
  1775  62.2400  177.00  183.36  13.30
  1776  62.2700  210.00  197.08  14.49
  1777  62.3000  222.00  210.67  14.90
  1778  62.3300  214.00  219.62  14.63
  1779  62.3600  225.00  219.31  15.00
  1780  62.3900  226.00  212.54  15.03
  1781  62.4200  212.00  204.80  14.56
  1782  62.4500  204.00  199.45  14.28
  1783  62.4800  179.00  195.90  13.38
  1784  62.5100  180.00  191.76  13.42
  1785  62.5400  185.00  184.63  13.60
  1786  62.5700  176.00  175.79  13.27
  1787  62.6000  155.00  167.52  12.45
  1788  62.6300  154.00  160.53  12.41
  1789  62.6600  147.00  155.22  12.12
  1790  62.6900  156.00  151.24  12.49
  1791  62.7200  154.00  148.35  12.41
  1792  62.7500  161.00  146.21  12.69
  1793  62.7800  140.00  144.74  11.83
  1794  62.8100  142.00  143.56  11.92
  1795  62.8400  163.00  142.63  12.77
  1796  62.8700  134.00  142.00  11.58
  1797  62.9000  137.00  141.59  11.70
  1798  62.9300  145.00  141.35  12.04
  1799  62.9600  156.00  141.29  12.49
  1800  62.9900  162.00  141.39  12.73
  1801  63.0200  129.00  141.66  11.36
  1802  63.0500  138.00  142.13  11.75
  1803  63.0800  151.00  142.85  12.29
  1804  63.1100  177.00  143.48  13.30
  1805  63.1400  146.00  144.99  12.08
  1806  63.1700  160.00  147.15  12.65
  1807  63.2000  183.00  150.17  13.53
  1808  63.2300  166.00  154.27  12.88
  1809  63.2600  151.00  159.09  12.29
  1810  63.2900  174.00  164.12  13.19
  1811  63.3200  174.00  167.35  13.19
  1812  63.3500  144.00  167.50  12.00
  1813  63.3800  152.00  165.31  12.33
  1814  63.4100  162.00  162.73  12.73
  1815  63.4400  178.00  161.03  13.34
  1816  63.4700  158.00  160.11  12.57
  1817  63.5000  150.00  159.03  12.25
  1818  63.5300  162.00  157.37  12.73
  1819  63.5600  156.00  154.78  12.49
  1820  63.5900  146.00  152.25  12.08
  1821  63.6200  150.00  150.29  12.25
  1822  63.6500  158.00  149.02  12.57
  1823  63.6800  158.00  148.37  12.57
  1824  63.7100  161.00  148.38  12.69
  1825  63.7400  154.00  148.72  12.41
  1826  63.7700  144.00  149.41  12.00
  1827  63.8000  132.00  150.48  11.49
  1828  63.8300  155.00  151.92  12.45
  1829  63.8600  165.00  153.77  12.85
  1830  63.8900  138.00  156.10  11.75
  1831  63.9200  122.00  158.95  11.05
  1832  63.9500  156.00  162.45  12.49
  1833  63.9800  183.00  166.75  13.53
  1834  64.0100  171.00  172.05  13.08
  1835  64.0400  187.00  178.69  13.67
  1836  64.0700  160.00  187.22  12.65
  1837  64.1000  185.00  198.43  13.60
  1838  64.1300  214.00  213.52  14.63
  1839  64.1600  240.00  234.09  15.49
  1840  64.1900  276.00  261.91  16.61
  1841  64.2200  308.00  297.87  17.55
  1842  64.2500  332.00  339.08  18.22
  1843  64.2800  411.00  375.42  20.27
  1844  64.3100  395.00  394.08  19.87
  1845  64.3400  342.00  391.07  18.49
  1846  64.3700  382.00  377.08  19.54
  1847  64.4000  388.00  366.71  19.70
  1848  64.4300  403.00  366.32  20.07
  1849  64.4600  365.00  372.17  19.10
  1850  64.4900  409.00  375.89  20.22
  1851  64.5200  356.00  372.05  18.87
  1852  64.5500  345.00  361.07  18.57
  1853  64.5800  326.00  344.50  18.06
  1854  64.6100  309.00  323.40  17.58
  1855  64.6400  296.00  300.17  17.20
  1856  64.6700  276.00  279.47  16.61
  1857  64.7000  268.00  263.32  16.37
  1858  64.7300  246.00  250.68  15.68
  1859  64.7600  224.00  238.76  14.97
  1860  64.7900  243.00  225.60  15.59
  1861  64.8200  201.00  211.24  14.18
  1862  64.8500  183.00  197.77  13.53
  1863  64.8800  175.00  186.54  13.23
  1864  64.9100  160.00  177.82  12.65
  1865  64.9400  167.00  171.23  12.92
  1866  64.9700  169.00  166.29  13.00
  1867  65.0000  164.00  162.61  12.81
  1868  65.0300  156.00  159.89  12.49
  1869  65.0600  166.00  157.94  12.88
  1870  65.0900  169.00  156.62  13.00
  1871  65.1200  172.00  155.86  13.11
  1872  65.1500  146.00  155.63  12.08
  1873  65.1800  161.00  155.89  12.69
  1874  65.2100  176.00  156.68  13.27
  1875  65.2400  175.00  158.03  13.23
  1876  65.2700  153.00  160.07  12.37
  1877  65.3000  171.00  162.93  13.08
  1878  65.3300  167.00  167.06  12.92
  1879  65.3600  186.00  172.86  13.64
  1880  65.3900  181.00  181.13  13.45
  1881  65.4200  210.00  192.44  14.49
  1882  65.4500  213.00  207.66  14.59
  1883  65.4800  222.00  226.50  14.90
  1884  65.5100  229.00  246.01  15.13
  1885  65.5400  283.00  259.86  16.82
  1886  65.5700  268.00  262.56  16.37
  1887  65.6000  280.00  255.79  16.73
  1888  65.6300  282.00  245.59  16.79
  1889  65.6600  229.00  238.16  15.13
  1890  65.6900  233.00  234.45  15.26
  1891  65.7200  252.00  231.26  15.87
  1892  65.7500  230.00  224.60  15.17
  1893  65.7800  230.00  213.78  15.17
  1894  65.8100  177.00  201.04  13.30
  1895  65.8400  195.00  189.49  13.96
  1896  65.8700  173.00  180.42  13.15
  1897  65.9000  169.00  173.69  13.00
  1898  65.9300  143.00  168.63  11.96
  1899  65.9600  166.00  164.68  12.88
  1900  65.9900  161.00  161.64  12.69
  1901  66.0200  169.00  159.48  13.00
  1902  66.0500  144.00  158.17  12.00
  1903  66.0800  146.00  157.65  12.08
  1904  66.1100  159.00  157.90  12.61
  1905  66.1400  167.00  158.94  12.92
  1906  66.1700  168.00  160.90  12.96
  1907  66.2000  170.00  163.96  13.04
  1908  66.2300  182.00  168.44  13.49
  1909  66.2600  218.00  174.67  14.76
  1910  66.2900  164.00  182.86  12.81
  1911  66.3200  209.00  191.96  14.46
  1912  66.3500  196.00  201.39  14.00
  1913  66.3800  192.00  208.07  13.86
  1914  66.4100  242.00  211.15  15.56
  1915  66.4400  223.00  212.74  14.93
  1916  66.4700  227.00  216.23  15.07
  1917  66.5000  202.00  223.66  14.21
  1918  66.5300  244.00  236.37  15.62
  1919  66.5600  265.00  253.20  16.28
  1920  66.5900  294.00  271.63  17.15
  1921  66.6200  286.00  287.63  16.91
  1922  66.6500  260.00  294.49  16.12
  1923  66.6800  274.00  288.77  16.55
  1924  66.7100  258.00  275.05  16.06
  1925  66.7400  232.00  260.37  15.23
  1926  66.7700  276.00  249.90  16.61
  1927  66.8000  246.00  243.59  15.68
  1928  66.8300  235.00  237.59  15.33
  1929  66.8600  236.00  228.27  15.36
  1930  66.8900  191.00  215.48  13.82
  1931  66.9200  181.00  202.05  13.45
  1932  66.9500  186.00  190.08  13.64
  1933  66.9800  201.00  180.95  14.18
  1934  67.0100  187.00  174.19  13.67
  1935  67.0400  180.00  169.54  13.42
  1936  67.0700  141.00  166.60  11.87
  1937  67.1000  176.00  165.04  13.27
  1938  67.1300  167.00  164.62  12.92
  1939  67.1600  167.00  165.35  12.92
  1940  67.1900  154.00  166.45  12.41
  1941  67.2200  176.00  168.07  13.27
  1942  67.2500  168.00  170.41  12.96
  1943  67.2800  172.00  173.93  13.11
  1944  67.3100  212.00  179.16  14.56
  1945  67.3400  206.00  186.64  14.35
  1946  67.3700  180.00  196.56  13.42
  1947  67.4000  202.00  208.85  14.21
  1948  67.4300  222.00  222.30  14.90
  1949  67.4600  244.00  234.64  15.62
  1950  67.4900  249.00  244.44  15.78
  1951  67.5200  252.00  253.46  15.87
  1952  67.5500  273.00  265.60  16.52
  1953  67.5800  264.00  282.84  16.25
  1954  67.6100  345.00  303.26  18.57
  1955  67.6400  338.00  318.54  18.38
  1956  67.6700  341.00  320.22  18.47
  1957  67.7000  295.00  307.66  17.18
  1958  67.7300  332.00  288.73  18.22
  1959  67.7600  281.00  271.90  16.76
  1960  67.7900  281.00  260.26  16.76
  1961  67.8200  267.00  252.10  16.34
  1962  67.8500  259.00  242.87  16.09
  1963  67.8800  247.00  230.18  15.72
  1964  67.9100  225.00  214.77  15.00
  1965  67.9400  198.00  199.72  14.07
  1966  67.9700  187.00  186.98  13.67
  1967  68.0000  186.00  177.00  13.64
  1968  68.0300  162.00  169.46  12.73
  1969  68.0600  156.00  163.81  12.49
  1970  68.0900  145.00  159.70  12.04
  1971  68.1200  170.00  156.54  13.04
  1972  68.1500  143.00  154.20  11.96
  1973  68.1800  137.00  152.49  11.70
  1974  68.2100  153.00  151.31  12.37
  1975  68.2400  165.00  150.56  12.85
  1976  68.2700  148.00  150.22  12.17
  1977  68.3000  154.00  150.24  12.41
  1978  68.3300  157.00  150.61  12.53
  1979  68.3600  167.00  151.35  12.92
  1980  68.3900  141.00  152.48  11.87
  1981  68.4200  176.00  154.02  13.27
  1982  68.4500  156.00  155.93  12.49
  1983  68.4800  151.00  158.52  12.29
  1984  68.5100  166.00  161.80  12.88
  1985  68.5400  178.00  165.98  13.34
  1986  68.5700  164.00  171.34  12.81
  1987  68.6000  165.00  178.36  12.85
  1988  68.6300  175.00  187.62  13.23
  1989  68.6600  186.00  200.66  13.64
  1990  68.6900  232.00  217.45  15.23
  1991  68.7200  227.00  239.06  15.07
  1992  68.7500  274.00  265.77  16.55
  1993  68.7800  302.00  293.57  17.38
  1994  68.8100  319.00  314.80  17.86
  1995  68.8400  303.00  322.64  17.41
  1996  68.8700  292.00  317.28  17.09
  1997  68.9000  291.00  307.11  17.06
  1998  68.9300  334.00  300.92  18.28
  1999  68.9600  310.00  301.98  17.61
  2000  68.9900  320.00  308.52  17.89
  2001  69.0200  315.00  315.67  17.75
  2002  69.0500  331.00  318.69  18.19
  2003  69.0800  305.00  315.07  17.46
  2004  69.1100  313.00  305.09  17.69
  2005  69.1400  309.00  292.10  17.58
  2006  69.1700  275.00  281.18  16.58
  2007  69.2000  274.00  275.75  16.55
  2008  69.2300  292.00  275.26  17.09
  2009  69.2600  280.00  275.30  16.73
  2010  69.2900  300.00  270.38  17.32
  2011  69.3200  258.00  258.68  16.06
  2012  69.3500  250.00  243.32  15.81
  2013  69.3800  197.00  228.83  14.04
  2014  69.4100  217.00  217.60  14.73
  2015  69.4400  203.00  209.30  14.25
  2016  69.4700  198.00  202.08  14.07
  2017  69.5000  211.00  194.63  14.53
  2018  69.5300  194.00  186.39  13.93
  2019  69.5600  193.00  178.40  13.89
  2020  69.5900  178.00  171.82  13.34
  2021  69.6200  147.00  166.79  12.12
  2022  69.6500  138.00  163.22  11.75
  2023  69.6800  144.00  161.02  12.00
  2024  69.7100  154.00  159.78  12.41
  2025  69.7400  153.00  159.16  12.37
  2026  69.7700  162.00  159.84  12.73
  2027  69.8000  158.00  161.71  12.57
  2028  69.8300  148.00  164.93  12.17
  2029  69.8600  155.00  169.89  12.45
  2030  69.8900  192.00  177.07  13.86
  2031  69.9200  178.00  186.91  13.34
  2032  69.9500  189.00  199.16  13.75
  2033  69.9800  202.00  212.62  14.21
  2034  70.0100  223.00  223.43  14.93
  2035  70.0400  213.00  227.51  14.59
  2036  70.0700  202.00  224.04  14.21
  2037  70.1000  208.00  216.49  14.42
  2038  70.1300  212.00  209.38  14.56
  2039  70.1600  187.00  204.87  13.67
  2040  70.1900  203.00  202.57  14.25
  2041  70.2200  202.00  200.29  14.21
  2042  70.2500  174.00  196.00  13.19
  2043  70.2800  190.00  189.56  13.78
  2044  70.3100  159.00  182.48  12.61
  2045  70.3400  187.00  176.39  13.67
  2046  70.3700  174.00  172.04  13.19
  2047  70.4000  142.00  169.57  11.92
  2048  70.4300  145.00  168.86  12.04
  2049  70.4600  182.00  169.73  13.49
  2050  70.4900  170.00  172.02  13.04
  2051  70.5200  191.00  175.60  13.82
  2052  70.5500  182.00  180.41  13.49
  2053  70.5800  184.00  186.75  13.56
  2054  70.6100  209.00  195.40  14.46
  2055  70.6400  229.00  207.56  15.13
  2056  70.6700  270.00  224.52  16.43
  2057  70.7000  241.00  247.36  15.52
  2058  70.7300  263.00  275.94  16.22
  2059  70.7600  303.00  306.92  17.41
  2060  70.7900  327.00  332.35  18.08
  2061  70.8200  332.00  342.81  18.22
  2062  70.8500  327.00  335.65  18.08
  2063  70.8800  312.00  317.84  17.66
  2064  70.9100  283.00  299.71  16.82
  2065  70.9400  285.00  287.19  16.88
  2066  70.9700  290.00  279.63  17.03
  2067  71.0000  275.00  273.27  16.58
  2068  71.0300  260.00  262.67  16.12
  2069  71.0600  256.00  246.41  16.00
  2070  71.0900  222.00  227.33  14.90
  2071  71.1200  187.00  209.12  13.67
  2072  71.1500  215.00  193.69  14.66
  2073  71.1800  199.00  181.85  14.11
  2074  71.2100  194.00  172.96  13.93
  2075  71.2400  166.00  166.26  12.88
  2076  71.2700  162.00  161.54  12.73
  2077  71.3000  156.00  158.28  12.49
  2078  71.3300  148.00  156.16  12.17
  2079  71.3600  177.00  155.06  13.30
  2080  71.3900  170.00  154.93  13.04
  2081  71.4200  170.00  155.59  13.04
  2082  71.4500  171.00  157.68  13.08
  2083  71.4800  172.00  161.27  13.11
  2084  71.5100  205.00  166.72  14.32
  2085  71.5400  188.00  174.55  13.71
  2086  71.5700  225.00  185.14  15.00
  2087  71.6000  206.00  198.21  14.35
  2088  71.6300  198.00  211.74  14.07
  2089  71.6600  217.00  221.90  14.73
  2090  71.6900  207.00  224.68  14.39
  2091  71.7200  205.00  219.78  14.32
  2092  71.7500  191.00  211.06  13.82
  2093  71.7800  221.00  202.89  14.87
  2094  71.8100  201.00  197.46  14.18
  2095  71.8400  174.00  194.29  13.19
  2096  71.8700  183.00  191.15  13.53
  2097  71.9000  206.00  185.90  14.35
  2098  71.9300  178.00  178.15  13.34
  2099  71.9600  175.00  169.28  13.23
  2100  71.9900  141.00  160.94  11.87
  2101  72.0200  161.00  154.03  12.69
  2102  72.0500  134.00  148.75  11.58
  2103  72.0800  124.00  144.81  11.14
  2104  72.1100  155.00  142.04  12.45
  2105  72.1400  154.00  140.25  12.41
  2106  72.1700  124.00  139.35  11.14
  2107  72.2000  141.00  139.05  11.87
  2108  72.2300  139.00  139.82  11.79
  2109  72.2600  146.00  141.24  12.08
  2110  72.2900  137.00  142.94  11.70
  2111  72.3200  156.00  144.17  12.49
  2112  72.3500  152.00  144.18  12.33
  2113  72.3800  115.00  142.91  10.72
  2114  72.4100  142.00  140.91  11.92
  2115  72.4400  156.00  139.21  12.49
  2116  72.4700  123.00  138.10  11.09
  2117  72.5000  143.00  137.52  11.96
  2118  72.5300  136.00  137.10  11.66
  2119  72.5600  154.00  136.44  12.41
  2120  72.5900  141.00  135.42  11.87
  2121  72.6200  144.00  134.25  12.00
  2122  72.6500  133.00  133.18  11.53
  2123  72.6800  148.00  132.32  12.17
  2124  72.7100  149.00  131.75  12.21
  2125  72.7400  159.00  131.51  12.61
  2126  72.7700  133.00  131.69  11.53
  2127  72.8000  144.00  132.32  12.00
  2128  72.8300  145.00  133.43  12.04
  2129  72.8600  147.00  135.08  12.12
  2130  72.8900  124.00  137.38  11.14
  2131  72.9200  155.00  140.60  12.45
  2132  72.9500  138.00  144.78  11.75
  2133  72.9800  137.00  150.16  11.70
  2134  73.0100  182.00  156.00  13.49
  2135  73.0400  172.00  162.45  13.11
  2136  73.0700  142.00  167.58  11.92
  2137  73.1000  168.00  170.58  12.96
  2138  73.1300  150.00  172.19  12.25
  2139  73.1600  172.00  173.97  13.11
  2140  73.1900  170.00  177.05  13.04
  2141  73.2200  171.00  180.99  13.08
  2142  73.2500  177.00  185.03  13.30
  2143  73.2800  197.00  187.37  14.04
  2144  73.3100  178.00  187.14  13.34
  2145  73.3400  208.00  184.42  14.42
  2146  73.3700  201.00  180.12  14.18
  2147  73.4000  205.00  175.48  14.32
  2148  73.4300  175.00  171.35  13.23
  2149  73.4600  166.00  167.74  12.88
  2150  73.4900  154.00  164.22  12.41
  2151  73.5200  175.00  160.49  13.23
  2152  73.5500  150.00  156.60  12.25
  2153  73.5800  151.00  152.74  12.29
  2154  73.6100  150.00  149.30  12.25
  2155  73.6400  139.00  146.56  11.79
  2156  73.6700  130.00  144.57  11.40
  2157  73.7000  140.00  143.01  11.83
  2158  73.7300  146.00  141.46  12.08
  2159  73.7600  144.00  139.75  12.00
  2160  73.7900  131.00  138.09  11.45
  2161  73.8200  137.00  136.88  11.70
  2162  73.8500  125.00  136.45  11.18
  2163  73.8800  139.00  136.61  11.79
  2164  73.9100  134.00  137.71  11.58
  2165  73.9400  134.00  139.05  11.58
  2166  73.9700  174.00  140.01  13.19
  2167  74.0000  135.00  140.08  11.62
  2168  74.0300  146.00  139.25  12.08
  2169  74.0600  119.00  138.05  10.91
  2170  74.0900  130.00  137.08  11.40
  2171  74.1200  135.00  137.03  11.62
  2172  74.1500  133.00  137.92  11.53
  2173  74.1800  149.00  139.62  12.21
  2174  74.2100  144.00  141.83  12.00
  2175  74.2400  136.00  144.16  11.66
  2176  74.2700  145.00  146.07  12.04
  2177  74.3000  140.00  146.89  11.83
  2178  74.3300  152.00  146.27  12.33
  2179  74.3600  172.00  144.60  13.11
  2180  74.3900  139.00  142.77  11.79
  2181  74.4200  131.00  141.38  11.45
  2182  74.4500  147.00  140.51  12.12
  2183  74.4800  129.00  139.86  11.36
  2184  74.5100  140.00  138.92  11.83
  2185  74.5400  149.00  137.39  12.21
  2186  74.5700  111.00  135.32  10.54
  2187  74.6000  127.00  133.21  11.27
  2188  74.6300  126.00  131.30  11.23
  2189  74.6600  128.00  129.72  11.31
  2190  74.6900  116.00  128.41  10.77
  2191  74.7200  133.00  127.43  11.53
  2192  74.7500  124.00  126.57  11.14
  2193  74.7800  145.00  125.93  12.04
  2194  74.8100  130.00  125.57  11.40
  2195  74.8400  125.00  125.48  11.18
  2196  74.8700  134.00  125.66  11.58
  2197  74.9000  124.00  126.12  11.14
  2198  74.9300  137.00  126.90  11.70
  2199  74.9600  120.00  128.06  10.95
  2200  74.9900  130.00  129.56  11.40
  2201  75.0200  148.00  131.47  12.17
