# generated using pymatgen
data_4345164
loop_
 _publ_author_name
  'Zhao, Dan'
  'Ma, Fa-Xue'
  'Ma, Shu-Qi'
  'Zhang, Ai-Yun'
  'Nie, Cong-Kui'
  'Huang, Min'
  'Zhang, Lei'
  'Fan, Yun-Chang'
_publ_section_title
;
Four-Dimensional Incommensurate Modulation and Luminescent Properties
of  Host Material Na3La(PO4)2.
;
_journal_issue   4
_journal_name_full   'Inorganic chemistry'
_journal_page_first   1835
_journal_page_last   1845
_journal_paper_doi   10.1021/acs.inorgchem.6b02241
_journal_volume   56
_journal_year   2017
_chemical_formula_sum   'La Na3 O8 P2'
_chemical_formula_weight   397.8
_space_group_IT_number   29
_space_group_ssg_name   Pca21(0\b0)000
_symmetry_cell_setting   orthorhombic
_symmetry_space_group_name_Hall   'P 2c -2ac'
_symmetry_space_group_name_H-M   'P c a 21'
_cell_angle_alpha   90
_cell_angle_beta   90
_cell_angle_gamma   90
_cell_formula_units_Z   8
_cell_length_a   14.0830(4)
_cell_length_b   5.3517(11)
_cell_length_c   18.7291(14)
_cell_measurement_reflns_used   1497
_cell_measurement_temperature   293(2)
_cell_measurement_theta_max   24.86
_cell_measurement_theta_min   2.53
_cell_modulation_dimension   1
_cell_volume   1411.6(3)
_computing_cell_refinement   'Bruker APEX II'
_computing_data_collection   'Bruker APEX II CCD'
_computing_data_reduction   'Bruker APEX II'
_computing_molecular_graphics   Jana2006
_computing_publication_material   Jana2006
_computing_structure_refinement   Jana2006
_computing_structure_solution   supreflip
_diffrn_ambient_temperature   293(2)
_diffrn_detector_area_resol_mean   83.33
_diffrn_measured_fraction_theta_full   1
_diffrn_measured_fraction_theta_max   1
_diffrn_measurement_device   'four-circle diffractometer'
_diffrn_measurement_device_type   'Bruker CCD'
_diffrn_measurement_method   '\w scans'
_diffrn_radiation_monochromator   graphite
_diffrn_radiation_probe   x-ray
_diffrn_radiation_source   'X-ray tube'
_diffrn_radiation_type   'Mo K\a'
_diffrn_radiation_wavelength   0.71073
_diffrn_reflns_av_R_equivalents   0.0804
_diffrn_reflns_av_unetI/netI   0.062
_diffrn_reflns_limit_h_max   18
_diffrn_reflns_limit_h_min   -18
_diffrn_reflns_limit_index_m_1_max   2
_diffrn_reflns_limit_index_m_1_min   -2
_diffrn_reflns_limit_k_max   7
_diffrn_reflns_limit_k_min   -7
_diffrn_reflns_limit_l_max   24
_diffrn_reflns_limit_l_min   -24
_diffrn_reflns_number   65382
_diffrn_reflns_theta_full   28.29
_diffrn_reflns_theta_max   28.29
_diffrn_reflns_theta_min   2
_exptl_absorpt_coefficient_mu   6.703
_exptl_absorpt_correction_T_max   0.572
_exptl_absorpt_correction_T_min   0.405
_exptl_absorpt_correction_type   multi-scan
_exptl_crystal_colour   colorless
_exptl_crystal_density_diffrn   3.7438
_exptl_crystal_description   prism
_exptl_crystal_F_000   1472
_exptl_crystal_size_max   0.20
_exptl_crystal_size_mid   0.10
_exptl_crystal_size_min   0.10
_refine_diff_density_max   1.35
_refine_diff_density_min   -1.57
_refine_ls_abs_structure_details
'8483 of Friedel pairs used in the refinement'
_refine_ls_extinction_coef   3140(50)
_refine_ls_extinction_method
'B-C type 1 Gaussian isotropic (Becker & Coppens, 1974)'
_refine_ls_goodness_of_fit_gt   1.36
_refine_ls_goodness_of_fit_ref   1.03
_refine_ls_number_constraints   1
_refine_ls_number_parameters   532
_refine_ls_number_reflns   17514
_refine_ls_number_restraints   1
_refine_ls_R_factor_all   0.1076
_refine_ls_R_factor_gt   0.0391
_refine_ls_shift/su_max   0.0097
_refine_ls_shift/su_mean   0.0008
_refine_ls_structure_factor_coef   F
_refine_ls_weighting_details   w=1/(\s^2^(F)+0.0001F^2^)
_refine_ls_weighting_scheme   sigma
_refine_ls_wR_factor_gt   0.0403
_refine_ls_wR_factor_ref   0.0462
_reflns_number_gt   7925
_reflns_number_total   17514
_reflns_threshold_expression   I>3\s(I)
_cod_data_source_file   ic6b02241_si_002.cif
_cod_data_source_block   I
_cod_depositor_comments   'Adding full bibliography for 4345164.cif.'
_cod_original_formula_sum   'La1 Na3 O8 P2'
_cod_database_code   4345164
_publcif_datablock.id   {20416844-8128-4e14-96f5-98bab98ecc3e}
_publcif_info_exptl_table_max_cols   4
_publcif_info_exptl_table_use_headnotes   n
loop_
 _space_group_symop_id
 _space_group_symop_operation_xyz
  1  x,y,z
  2  -x,-y,z+0.5
  3  x+0.5,-y,z
  4  -x+0.5,y,z+0.5
loop_
 _space_group_symop_ssg_id
 _space_group_symop_ssg_operation_algebraic
  1  x1,x2,x3,x4
  2  -x1,-x2,x3+1/2,-x4
  3  x1+1/2,-x2,x3,-x4
  4  -x1+1/2,x2,x3+1/2,x4
loop_
 _atom_site_label
 _atom_site_type_symbol
 _atom_site_fract_x
 _atom_site_fract_y
 _atom_site_fract_z
 _atom_site_adp_type
 _atom_site_U_iso_or_equiv
 _atom_site_site_symmetry_multiplicity
 _atom_site_occupancy
 _atom_site_calc_flag
  La1  La  0.38329(3)  0.04942(7)  0.44615(2)  Uani  0.01176(11)  4
  1  d
  La2  La  0.63352(3)  0.53793(7)  0.72005(2)  Uani  0.01197(11)  4
  1  d
  P1  P  0.26741(17)  0.9881(2)  0.29710(16)  Uani  0.0083(6)  4  1
  d
  P2  P  0.77188(15)  0.4707(3)  0.54107(14)  Uani  0.0082(5)  4  1
  d
  P3  P  0.98245(17)  0.4809(2)  0.36875(15)  Uani  0.0078(6)  4  1
  d
  P4  P  0.52057(15)  0.0227(2)  0.62511(14)  Uani  0.0074(5)  4  1
  d
  Na1  Na  0.3836(3)  0.5000(4)  0.69346(19)  Uani  0.0128(11)  4  1
  d
  Na2  Na  0.0498(2)  0.9997(3)  0.2926(2)  Uani  0.0156(11)  4  1
  d
  Na3  Na  0.5316(2)  0.5305(4)  0.5335(2)  Uani  0.0164(9)  4  1  d
  Na4  Na  0.7018(3)  0.4950(4)  0.3739(3)  Uani  0.0267(14)  4  1
  d
  Na5  Na  1.1337(3)  1.0020(4)  0.4722(2)  Uani  0.0211(14)  4  1
  d
  Na6  Na  0.7774(3)  0.0013(3)  0.6340(2)  Uani  0.0187(10)  4  1
  d
  O1  O  0.8747(3)  0.5132(7)  0.3690(4)  Uani  0.0118(16)  4  1  d
  O2  O  0.6160(2)  -0.0984(7)  0.6400(2)  Uani  0.0119(12)  4  1  d
  O3  O  0.6980(3)  0.5976(6)  0.4961(2)  Uani  0.0178(12)  4  1  d
  O4  O  0.4987(4)  -0.0119(6)  0.5452(3)  Uani  0.0121(10)  4  1  d
  O5  O  0.5292(2)  0.2984(6)  0.64281(18)  Uani  0.0153(10)  4  1
  d
  O6  O  1.0166(4)  0.4781(6)  0.2910(4)  Uiso  0.0195(12)  4  1  d
  O7  O  1.0116(3)  0.2352(6)  0.4058(2)  Uani  0.0126(11)  4  1  d
  O8  O  0.2388(3)  0.7503(6)  0.2613(2)  Uani  0.0173(12)  4  1  d
  O9  O  1.0277(3)  0.7072(6)  0.4080(2)  Uani  0.0153(11)  4  1  d
  O10  O  0.2333(4)  0.9919(5)  0.3746(3)  Uani  0.0102(10)  4  1  d
  O11  O  0.2241(3)  1.2040(5)  0.2560(2)  Uani  0.0109(10)  4  1  d
  O12  O  0.7497(5)  0.4863(5)  0.6208(4)  Uiso  0.0156(12)  4  1  d
  O13  O  0.7775(2)  0.1928(6)  0.52037(18)  Uani  0.0166(10)  4  1
  d
  O14  O  0.4463(3)  -0.0922(7)  0.6703(2)  Uani  0.0200(13)  4  1
  d
  O15  O  0.3755(4)  1.0143(7)  0.2982(4)  Uani  0.0177(18)  4  1  d
  O16  O  0.8635(2)  0.6038(7)  0.5267(3)  Uani  0.0266(14)  4  1  d
loop_
 _atom_site_aniso_label
 _atom_site_aniso_type_symbol
 _atom_site_aniso_U_11
 _atom_site_aniso_U_22
 _atom_site_aniso_U_33
 _atom_site_aniso_U_12
 _atom_site_aniso_U_13
 _atom_site_aniso_U_23
  La1  La  0.00744(16)  0.01688(17)  0.0110(2)  -0.00262(14)
  -0.00097(15)  0.0019(2)
  La2  La  0.00795(17)  0.01788(17)  0.0101(2)  -0.00234(14)
  0.00084(15)  -0.0020(2)
  P1  P  0.0075(11)  0.0072(7)  0.0101(12)  0.0000(4)  -0.0001(9)
  -0.0009(4)
  P2  P  0.0083(9)  0.0083(6)  0.0079(9)  0.0025(5)  -0.0019(7)
  -0.0008(6)
  P3  P  0.0080(11)  0.0095(7)  0.0057(11)  -0.0008(5)  0.0002(9)
  -0.0009(5)
  P4  P  0.0077(9)  0.0079(6)  0.0067(9)  0.0014(5)  -0.0027(7)
  -0.0003(5)
  Na1  Na  0.008(2)  0.0200(11)  0.011(2)  -0.0032(7)  -0.0037(17)
  0.0009(9)
  Na2  Na  0.014(2)  0.0213(14)  0.011(2)  -0.0004(7)  -0.0010(18)
  -0.0042(7)
  Na3  Na  0.0149(18)  0.0177(11)  0.0165(18)  -0.0022(9)
  -0.0027(14)  0.0010(9)
  Na4  Na  0.022(3)  0.0294(16)  0.029(3)  -0.0011(9)  0.004(2)
  -0.0054(9)
  Na5  Na  0.015(2)  0.0220(13)  0.026(3)  -0.0014(7)  0.001(2)
  0.0005(10)
  Na6  Na  0.0227(19)  0.0206(13)  0.0128(17)  0.0008(8)
  -0.0019(14)  0.0068(8)
  O1  O  0.004(3)  0.0179(19)  0.013(3)  -0.0011(13)  -0.001(2)
  -0.0062(18)
  O2  O  0.0047(18)  0.018(2)  0.013(2)  0.0044(15)  0.0004(14)
  0.0078(16)
  O3  O  0.018(2)  0.0216(18)  0.013(2)  0.0063(17)  -0.0053(17)
  -0.0011(17)
  O4  O  0.0148(19)  0.0180(18)  0.0035(17)  0.0030(12)  -0.0031(12)
  -0.0023(12)
  O5  O  0.0198(19)  0.0080(16)  0.0182(19)  -0.0005(13)  0.0012(15)
  -0.0040(13)
  O7  O  0.020(2)  0.0028(15)  0.015(2)  -0.0019(14)  -0.0077(16)
  0.0034(14)
  O8  O  0.018(2)  0.0171(18)  0.017(2)  -0.0004(16)  -0.0017(18)
  -0.0034(16)
  O9  O  0.0093(18)  0.0161(18)  0.020(2)  -0.0019(13)  -0.0018(16)
  -0.0080(16)
  O10  O  0.0065(17)  0.0218(19)  0.0024(16)  0.0005(11)  0.0030(11)
  0.0003(11)
  O11  O  0.0131(18)  0.0043(15)  0.015(2)  -0.0013(12)  -0.0010(15)
  0.0019(14)
  O13  O  0.022(2)  0.0138(17)  0.0139(18)  0.0025(14)  0.0040(15)
  -0.0061(14)
  O14  O  0.020(2)  0.024(2)  0.016(2)  -0.0067(18)  0.0033(18)
  -0.0029(17)
  O15  O  0.011(3)  0.020(2)  0.022(4)  0.0014(14)  0.003(2)
  -0.0011(19)
  O16  O  0.027(2)  0.030(2)  0.023(3)  -0.0141(19)  0.0013(18)
  0.005(2)
loop_
 _atom_site_displace_Fourier_atom_site_label
 _atom_site_displace_Fourier_axis
 _atom_site_displace_Fourier_wave_vector_seq_id
 _atom_site_displace_Fourier_param_cos
 _atom_site_displace_Fourier_param_sin
  La1  x  1  -0.00298(4)  0.00335(3)
  La1  y  1  0.00465(11)  -0.03613(10)
  La1  z  1  0.00479(5)  -0.00442(3)
  La1  x  2  0.00026(7)  0.00032(7)
  La1  y  2  -0.00137(15)  -0.00599(14)
  La1  z  2  -0.00100(5)  0.00018(5)
  La2  x  1  0.00432(4)  -0.00265(3)
  La2  y  1  -0.01577(10)  0.03496(11)
  La2  z  1  0.00491(5)  -0.00325(3)
  La2  x  2  -0.00043(7)  0.00078(7)
  La2  y  2  0.00441(14)  -0.00479(15)
  La2  z  2  0.00160(4)  0.00019(6)
  P1  x  1  0.0052(2)  -0.00360(12)
  P1  y  1  0.0043(3)  -0.0003(4)
  P1  z  1  0.00121(17)  -0.00058(9)
  P1  x  2  -0.0021(3)  0.0008(3)
  P1  y  2  0.0004(5)  0.0011(6)
  P1  z  2  -0.0015(2)  -0.00015(18)
  P2  x  1  0.00492(18)  0.00049(11)
  P2  y  1  -0.0055(3)  0.0022(4)
  P2  z  1  0.00115(16)  -0.00014(10)
  P2  x  2  0.00190(15)  0.00234(15)
  P2  y  2  -0.0020(5)  -0.0048(5)
  P2  z  2  0.00022(19)  0.00006(18)
  P3  x  1  0.0062(2)  -0.00205(12)
  P3  y  1  -0.0027(3)  -0.0049(4)
  P3  z  1  0.00155(17)  -0.00115(9)
  P3  x  2  -0.0004(3)  0.0002(3)
  P3  y  2  -0.0014(5)  0.0033(6)
  P3  z  2  0.00021(19)  -0.00021(18)
  P4  x  1  -0.00763(19)  -0.00109(12)
  P4  y  1  0.0007(3)  0.0025(4)
  P4  z  1  0.00130(17)  -0.00188(9)
  P4  x  2  -0.0013(3)  0.0008(3)
  P4  y  2  0.0002(5)  0.0030(6)
  P4  z  2  -0.00152(18)  -0.00019(18)
  Na2  x  1  -0.0028(4)  -0.00418(19)
  Na2  y  1  -0.0013(4)  -0.0072(7)
  Na2  z  1  0.0004(3)  0.00061(14)
  Na3  x  1  0.0190(3)  0.0019(2)
  Na3  y  1  0.0096(5)  -0.0033(6)
  Na3  z  1  0.0045(2)  -0.00239(16)
  Na4  x  1  -0.0017(4)  0.0031(2)
  Na4  y  1  -0.0024(5)  0.0039(8)
  Na4  z  1  0.0036(3)  -0.00212(16)
  Na5  x  1  -0.0033(3)  -0.0039(2)
  Na5  y  1  -0.0016(6)  0.0347(7)
  Na5  z  1  -0.0032(3)  0.00074(19)
  Na6  x  1  -0.0168(3)  -0.0029(2)
  Na6  y  1  -0.0026(5)  0.0178(7)
  Na6  z  1  0.0023(2)  0.00451(16)
  O1  x  1  0.0041(5)  0.0000(3)
  O1  y  1  -0.0324(9)  0.0203(12)
  O1  z  1  0.0090(5)  -0.0022(3)
  O2  x  1  -0.0209(3)  0.0018(3)
  O2  y  1  -0.0623(10)  0.0089(10)
  O2  z  1  0.0098(3)  -0.0020(3)
  O3  x  1  0.0236(4)  0.0067(4)
  O3  y  1  0.0528(9)  0.0162(9)
  O3  z  1  -0.0008(3)  -0.0015(3)
  O4  x  1  -0.0003(5)  0.0025(3)
  O4  y  1  -0.0022(7)  -0.0054(10)
  O4  z  1  -0.0014(4)  -0.0021(2)
  O5  x  1  0.0107(4)  0.0113(3)
  O5  y  1  -0.0025(7)  0.0010(7)
  O5  z  1  0.0003(3)  -0.0054(3)
  O7  x  1  0.0074(4)  -0.0164(4)
  O7  y  1  -0.0030(7)  0.0036(7)
  O7  z  1  -0.0007(3)  0.0050(3)
  O8  x  1  0.0045(4)  -0.0197(4)
  O8  y  1  0.0036(8)  -0.0035(8)
  O8  z  1  -0.0005(3)  0.0060(3)
  O9  x  1  0.0028(3)  0.0042(3)
  O9  y  1  -0.0014(8)  -0.0024(8)
  O9  z  1  0.0054(3)  -0.0023(3)
  O10  x  1  -0.0015(5)  -0.0025(3)
  O10  y  1  -0.0094(7)  0.0317(10)
  O10  z  1  0.0003(4)  -0.0002(2)
  O11  x  1  0.0028(3)  0.0056(3)
  O11  y  1  0.0026(7)  0.0023(7)
  O11  z  1  0.0027(3)  -0.0032(3)
  O13  x  1  -0.0125(4)  0.0062(3)
  O13  y  1  -0.0036(8)  -0.0024(8)
  O13  z  1  0.0002(3)  0.0043(3)
  O14  x  1  -0.0228(4)  0.0021(4)
  O14  y  1  0.0613(10)  -0.0011(9)
  O14  z  1  -0.0029(3)  -0.0013(3)
  O15  x  1  0.0054(5)  -0.0023(3)
  O15  y  1  0.0261(10)  -0.0351(12)
  O15  z  1  0.0094(5)  -0.0022(3)
loop_
 _atom_site_Fourier_wave_vector_seq_id
 _jana_atom_site_fourier_wave_vector_q1_coeff
  1  1
  2  2
loop_
 _atom_site_occ_special_func_atom_site_label
 _atom_site_occ_special_func_crenel_c
 _atom_site_occ_special_func_crenel_w
  Na1  0.25  1
  O6  0.86  1
  O12  0.611  1
  O16  0.625  1
loop_
 _atom_site_U_Fourier_atom_site_label
 _atom_site_U_Fourier_tens_elem
 _atom_site_U_Fourier_wave_vector_seq_id
 _atom_site_U_Fourier_param_cos
 _atom_site_U_Fourier_param_sin
  La1  U11  1  -0.0002(3)  -0.0003(2)
  La1  U22  1  0.0053(3)  0.0054(2)
  La1  U33  1  -0.0023(4)  -0.0008(3)
  La1  U12  1  -0.0008(2)  0.00007(18)
  La1  U13  1  0.0003(2)  0.0007(2)
  La1  U23  1  -0.0017(3)  -0.0018(3)
  La1  U11  2  -0.0011(4)  -0.0012(4)
  La1  U22  2  0.0056(4)  0.0130(4)
  La1  U33  2  -0.0006(5)  0.0033(4)
  La1  U12  2  -0.0012(3)  -0.0020(3)
  La1  U13  2  -0.0003(3)  -0.0022(3)
  La1  U23  2  0.0010(4)  0.0030(3)
  La2  U11  1  0.0009(3)  -0.00008(19)
  La2  U22  1  -0.0031(3)  -0.0032(2)
  La2  U33  1  0.0013(4)  -0.0003(3)
  La2  U12  1  0.0005(2)  -0.00049(19)
  La2  U13  1  0.0003(2)  0.00021(19)
  La2  U23  1  -0.0017(3)  -0.0042(3)
  La2  U11  2  0.0028(4)  -0.0004(4)
  La2  U22  2  0.0018(4)  0.0139(4)
  La2  U33  2  0.0017(5)  -0.0016(4)
  La2  U12  2  -0.0009(3)  -0.0042(3)
  La2  U13  2  0.0011(3)  0.0011(3)
  La2  U23  2  -0.0045(4)  -0.0044(3)
  P2  U11  1  0.0017(13)  -0.0006(9)
  P2  U22  1  0.0032(8)  0.0018(9)
  P2  U33  1  0.0023(14)  -0.0027(8)
  P2  U12  1  -0.0026(7)  0.0022(7)
  P2  U13  1  0.0009(10)  0.0006(7)
  P2  U23  1  0.0001(8)  -0.0002(8)
  P3  U11  1  -0.0009(9)  0.0008(9)
  P3  U22  1  0.0000(8)  -0.0026(8)
  P3  U33  1  0.0015(9)  0.0001(8)
  P3  U12  1  0.0009(6)  0.0006(6)
  P3  U13  1  0.0003(7)  -0.0017(7)
  P3  U23  1  0.0005(7)  -0.0003(7)
  P4  U11  1  0.0001(12)  0.0010(9)
  P4  U22  1  0.0017(9)  -0.0034(8)
  P4  U33  1  0.0001(13)  0.0017(9)
  P4  U12  1  0.0031(7)  0.0010(8)
  P4  U13  1  -0.0019(10)  -0.0003(7)
  P4  U23  1  0.0004(7)  0.0007(8)
loop_
 _atom_type_symbol
 _atom_type_scat_dispersion_real
 _atom_type_scat_dispersion_imag
 _atom_type_scat_source
  La  -0.2871  2.4523
  'International Tables Vol C tables 4.2.6.8 and 6.1.1.1'
  Na  0.0362  0.0249
  'International Tables Vol C tables 4.2.6.8 and 6.1.1.1'
  O  0.0106  0.0060
  'International Tables Vol C tables 4.2.6.8 and 6.1.1.1'
  P  0.1023  0.0942
  'International Tables Vol C tables 4.2.6.8 and 6.1.1.1'
loop_
 _cell_wave_vector_seq_id
 _cell_wave_vector_x
 _cell_wave_vector_y
 _cell_wave_vector_z
  1  0.000000  0.386580  0.000000
loop_
 _geom_angle_atom_site_label_1
 _geom_angle_atom_site_label_2
 _geom_angle_atom_site_label_3
 _geom_angle_site_ssg_symmetry_1
 _geom_angle_site_ssg_symmetry_3
 _geom_angle_av
 _geom_angle_min
 _geom_angle_max
  O1  La1  O1  3_4555  3_4655  122.5(2)  120.4(2)  124.7(2)
  O1  La1  O3  3_4555  3_4655  126.64(17)  124.04(18)  129.19(18)
  O1  La1  O4  3_4555  .  103.0(2)  98.6(2)  106.1(2)
  O1  La1  O7  3_4555  3_4555  48.88(19)  41.65(18)  55.3(2)
  O1  La1  O9  3_4555  3_4655  112.0(2)  105.71(19)  117.0(2)
  O1  La1  O10  3_4555  1_5455  68.3(2)  58.85(18)  77.0(2)
  O1  La1  O13  3_4555  3_4555  75.1(2)  71.16(19)  79.2(2)
  O1  La1  O15  3_4555  1_5455  60.6(2)  58.6(2)  63.3(2)
  O1  La1  O16  3_4555  3_4655  163.6(3)  157.8(3)  172.1(3)
  O1  La1  O3  3_4655  3_4655  68.8(2)  64.60(18)  73.8(2)
  O1  La1  O4  3_4655  .  122.1(2)  118.1(2)  124.6(2)
  O1  La1  O7  3_4655  3_4555  113.2(2)  109.8(2)  115.7(2)
  O1  La1  O9  3_4655  3_4655  56.4(2)  54.07(19)  58.1(2)
  O1  La1  O10  3_4655  1_5455  77.7(2)  69.6(2)  86.5(2)
  O1  La1  O13  3_4655  3_4555  137.0(2)  128.6(2)  146.2(2)
  O1  La1  O15  3_4655  1_5455  62.0(2)  61.2(2)  62.6(3)
  O1  La1  O16  3_4655  3_4655  70.6(3)  66.9(3)  74.1(3)
  O3  La1  O4  3_4655  .  111.9(2)  108.4(2)  116.2(2)
  O3  La1  O7  3_4655  3_4555  172.99(18)  165.2(2)  179.80(17)
  O3  La1  O9  3_4655  3_4655  114.80(18)  107.21(17)  123.93(19)
  O3  La1  O10  3_4655  1_5455  64.04(19)  57.60(18)  70.7(2)
  O3  La1  O13  3_4655  3_4555  70.03(17)  66.11(16)  74.18(19)
  O3  La1  O15  3_4655  1_5455  106.63(19)  104.34(19)  109.2(2)
  O3  La1  O16  3_4655  3_4655  45.89(17)  40.25(17)  57.10(17)
  O4  La1  O7  .  3_4555  70.6(2)  68.8(2)  72.0(2)
  O4  La1  O9  .  3_4655  75.5(2)  73.2(2)  77.8(2)
  O4  La1  O10  .  1_5455  156.5(2)  150.1(2)  162.7(3)
  O4  La1  O13  .  3_4555  84.3(2)  79.0(2)  90.8(2)
  O4  La1  O15  .  1_5455  139.3(2)  133.7(2)  144.3(2)
  O4  La1  O16  .  3_4655  73.3(2)  71.7(2)  75.8(2)
  O7  La1  O9  3_4555  3_4655  69.13(19)  67.33(18)  70.64(19)
  O7  La1  O10  3_4555  1_5455  111.7(2)  97.8(2)  123.4(2)
  O7  La1  O13  3_4555  3_4555  107.12(19)  94.48(19)  119.64(19)
  O7  La1  O15  3_4555  1_5455  71.7(2)  69.0(2)  74.0(2)
  O7  La1  O16  3_4555  3_4655  138.5(2)  135.42(19)  140.3(2)
  O9  La1  O10  3_4655  1_5455  125.3(2)  121.1(2)  128.1(2)
  O9  La1  O13  3_4655  3_4555  158.4(2)  154.1(2)  161.1(2)
  O9  La1  O15  3_4655  1_5455  77.4(2)  73.8(2)  81.8(2)
  O9  La1  O16  3_4655  3_4655  82.6(2)  78.5(2)  85.0(2)
  O10  La1  O13  1_5455  3_4555  73.7(2)  72.0(2)  75.9(2)
  O10  La1  O15  1_5455  1_5455  55.4(2)  53.7(2)  56.5(3)
  O10  La1  O16  1_5455  3_4655  109.3(2)  97.6(2)  125.66(19)
  O13  La1  O15  3_4555  1_5455  120.7(2)  118.1(2)  123.5(2)
  O13  La1  O16  3_4555  3_4655  88.8(2)  81.2(2)  101.1(3)
  O15  La1  O16  1_5455  3_4655  131.8(3)  128.8(3)  135.0(3)
  O1  La2  O2  4_6555  1_5655  129.2(2)  124.0(2)  133.0(2)
  O1  La2  O5  4_6555  .  122.7(2)  120.6(2)  125.2(2)
  O1  La2  O6  4_6555  4_6555  55.6(3)  54.0(3)  56.5(3)
  O1  La2  O8  4_6555  2_6655  72.1(2)  69.6(2)  74.1(2)
  O1  La2  O11  4_6555  2_6755  78.0(2)  74.6(2)  82.4(2)
  O1  La2  O12  4_6555  .  139.9(3)  133.8(3)  144.9(3)
  O1  La2  O14  4_6555  1_5655  105.49(19)  102.15(17)  107.8(2)
  O1  La2  O15  4_6555  2_6655  60.9(2)  57.7(2)  64.9(2)
  O1  La2  O15  4_6555  2_6755  61.1(2)  58.9(2)  62.8(2)
  O2  La2  O5  1_5655  .  89.3(2)  79.7(2)  99.1(2)
  O2  La2  O6  1_5655  4_6555  109.6(3)  94.2(3)  128.5(3)
  O2  La2  O8  1_5655  2_6655  138.6(2)  135.1(2)  141.9(2)
  O2  La2  O11  1_5655  2_6755  79.12(19)  75.89(19)  83.4(2)
  O2  La2  O12  1_5655  .  72.7(3)  69.1(3)  75.2(3)
  O2  La2  O14  1_5655  1_5655  45.95(18)  35.40(17)  57.34(18)
  O2  La2  O15  1_5655  2_6655  165.2(2)  158.6(2)  170.4(2)
  O2  La2  O15  1_5655  2_6755  68.8(3)  65.5(2)  72.6(3)
  O5  La2  O6  .  4_6555  74.6(3)  72.0(3)  77.7(3)
  O5  La2  O8  .  2_6655  107.0(2)  93.9(2)  121.25(19)
  O5  La2  O11  .  2_6755  156.4(2)  153.1(2)  159.3(2)
  O5  La2  O12  .  .  83.7(3)  79.3(3)  89.9(3)
  O5  La2  O14  .  1_5655  71.02(17)  66.69(16)  75.38(19)
  O5  La2  O15  .  2_6655  76.6(2)  72.49(19)  80.6(2)
  O5  La2  O15  .  2_6755  137.3(2)  127.6(2)  147.3(2)
  O6  La2  O8  4_6555  2_6655  111.0(3)  95.8(3)  122.2(3)
  O6  La2  O11  4_6555  2_6755  125.8(3)  120.5(3)  129.6(3)
  O6  La2  O12  4_6555  .  157.0(3)  149.2(3)  161.9(4)
  O6  La2  O14  4_6555  1_5655  64.3(3)  59.0(2)  72.0(3)
  O6  La2  O15  4_6555  2_6655  67.7(2)  56.4(2)  75.8(2)
  O6  La2  O15  4_6555  2_6755  78.2(3)  69.6(3)  90.5(3)
  O8  La2  O11  2_6655  2_6755  71.61(19)  69.53(18)  73.55(19)
  O8  La2  O12  2_6655  .  71.9(3)  69.2(3)  74.1(3)
  O8  La2  O14  2_6655  1_5655  172.08(19)  164.9(2)  179.71(19)
  O8  La2  O15  2_6655  2_6655  48.39(19)  41.36(18)  54.9(2)
  O8  La2  O15  2_6655  2_6755  113.6(2)  109.0(2)  116.4(2)
  O11  La2  O12  2_6755  .  74.7(3)  73.1(3)  76.6(3)
  O11  La2  O14  2_6755  1_5655  111.89(17)  103.16(16)  121.33(18)
  O11  La2  O15  2_6755  2_6655  113.72(19)  107.73(17)  118.6(2)
  O11  La2  O15  2_6755  2_6755  55.39(19)  52.55(19)  57.4(2)
  O12  La2  O14  .  1_5655  111.5(3)  107.1(3)  117.1(3)
  O12  La2  O15  .  2_6655  104.8(3)  99.7(2)  108.6(2)
  O12  La2  O15  .  2_6755  120.8(3)  117.7(3)  124.9(3)
  O14  La2  O15  1_5655  2_6655  127.16(17)  123.89(18)  129.97(18)
  O14  La2  O15  1_5655  2_6755  67.7(2)  63.15(18)  72.8(2)
  O15  La2  O15  2_6655  2_6755  122.0(3)  119.4(3)  125.6(2)
  O8  P1  O10  .  .  110.6(5)  108.7(5)  112.3(5)
  O8  P1  O11  .  .  108.3(5)  105.9(5)  110.8(6)
  O8  P1  O15  .  .  110.5(5)  109.1(5)  112.3(5)
  O10  P1  O11  .  .  110.0(5)  108.4(5)  111.5(5)
  O10  P1  O15  .  .  107.8(6)  103.2(6)  111.2(6)
  O11  P1  O15  .  .  109.5(5)  107.4(5)  111.5(5)
  O3  P2  O12  .  .  112.2(6)  107.4(5)  116.2(6)
  O3  P2  O13  .  .  109.6(5)  106.4(4)  112.4(5)
  O3  P2  O16  .  .  106.3(5)  98.4(5)  115.4(5)
  O12  P2  O13  .  .  107.6(5)  104.1(5)  113.1(5)
  O12  P2  O16  .  .  109.0(7)  107.6(6)  117.2(7)
  O13  P2  O16  .  .  111.9(5)  107.3(5)  113.7(5)
  O1  P3  O6  .  .  108.7(7)  105.7(7)  110.6(7)
  O1  P3  O7  .  .  111.0(5)  108.8(5)  114.9(6)
  O1  P3  O9  .  .  108.2(5)  104.7(5)  110.4(5)
  O6  P3  O7  .  .  109.6(5)  106.8(5)  112.0(5)
  O6  P3  O9  .  .  109.1(6)  106.7(6)  112.9(6)
  O7  P3  O9  .  .  110.1(5)  109.5(5)  110.9(5)
  O2  P4  O4  .  .  107.6(5)  106.1(5)  109.0(6)
  O2  P4  O5  .  .  108.1(5)  105.8(5)  111.1(5)
  O2  P4  O14  .  .  110.4(5)  108.4(5)  112.2(5)
  O4  P4  O5  .  .  109.4(5)  108.4(5)  110.6(5)
  O4  P4  O14  .  .  111.4(5)  109.0(5)  113.5(6)
  O5  P4  O14  .  .  109.9(5)  109.5(5)  110.4(5)
  O5  Na1  O6  .  4_6555  77.3(4)  74.8(4)  79.5(4)
  O5  Na1  O8  .  4_5555  166.1(3)  157.4(4)  177.9(4)
  O5  Na1  O11  .  4_5455  113.8(3)  96.6(2)  123.4(3)
  O5  Na1  O12  .  3_4655  116.7(4)  106.5(4)  122.6(4)
  O5  Na1  O14  .  .  47.5(2)  36.73(17)  55.3(2)
  O5  Na1  O14  .  1_5655  91.3(3)  79.3(3)  106.5(3)
  O6  Na1  O8  4_6555  4_5555  92.4(4)  84.7(4)  102.6(4)
  O6  Na1  O11  4_6555  4_5455  88.1(4)  81.1(3)  91.0(4)
  O6  Na1  O12  4_6555  3_4655  162.1(5)  154.5(5)  166.8(5)
  O6  Na1  O14  4_6555  .  84.2(3)  75.2(3)  90.6(3)
  O6  Na1  O14  4_6555  1_5655  87.9(3)  81.7(3)  98.7(4)
  O8  Na1  O11  4_5555  4_5455  71.6(3)  70.4(3)  75.3(3)
  O8  Na1  O12  4_5555  3_4655  73.9(4)  71.2(3)  76.6(4)
  O8  Na1  O14  4_5555  .  138.8(3)  130.5(3)  142.0(3)
  O8  Na1  O14  4_5555  1_5655  81.8(3)  77.0(3)  86.4(3)
  O11  Na1  O12  4_5455  3_4655  78.2(3)  73.4(3)  79.4(3)
  O11  Na1  O14  4_5455  .  67.3(2)  60.18(18)  70.5(2)
  O11  Na1  O14  4_5455  1_5655  152.9(4)  147.3(3)  159.6(4)
  O12  Na1  O14  3_4655  .  99.3(3)  91.4(3)  102.0(3)
  O12  Na1  O14  3_4655  1_5655  99.6(4)  94.3(3)  104.8(4)
  O14  Na1  O14  .  1_5655  138.7(3)  131.8(3)  146.4(3)
  O6  Na2  O6  1_4555  1_4655  160.2(4)  158.2(4)  162.6(4)
  O6  Na2  O7  1_4555  1_4655  117.8(3)  117.6(3)  118.5(3)
  O6  Na2  O8  1_4555  .  72.9(3)  70.4(3)  75.3(3)
  O6  Na2  O9  1_4555  1_4555  54.2(3)  51.6(3)  56.2(3)
  O6  Na2  O11  1_4555  .  122.1(3)  120.7(3)  123.8(3)
  O6  Na2  O14  1_4555  4_5645  77.6(3)  67.0(3)  87.4(3)
  O6  Na2  O15  1_4555  3_4755  78.7(3)  74.8(3)  83.3(3)
  O6  Na2  O7  1_4655  1_4655  58.8(3)  57.7(3)  59.9(3)
  O6  Na2  O8  1_4655  .  126.1(3)  123.4(3)  129.1(3)
  O6  Na2  O9  1_4655  1_4555  124.1(4)  123.3(3)  125.2(4)
  O6  Na2  O11  1_4655  .  76.6(3)  75.1(3)  77.6(3)
  O6  Na2  O14  1_4655  4_5645  101.5(4)  93.5(4)  108.5(4)
  O6  Na2  O15  1_4655  3_4755  81.7(3)  76.1(3)  88.0(4)
  O7  Na2  O8  1_4655  .  124.6(3)  121.2(3)  127.6(3)
  O7  Na2  O9  1_4655  1_4555  66.0(2)  64.3(2)  67.3(2)
  O7  Na2  O11  1_4655  .  101.4(2)  97.1(2)  105.5(2)
  O7  Na2  O14  1_4655  4_5645  157.2(3)  153.4(2)  162.2(3)
  O7  Na2  O15  1_4655  3_4755  76.6(3)  73.6(3)  79.9(3)
  O8  Na2  O9  .  1_4555  89.9(2)  86.1(2)  93.6(2)
  O8  Na2  O11  .  .  49.58(18)  46.41(17)  52.9(2)
  O8  Na2  O14  .  4_5645  72.4(2)  67.5(2)  77.0(3)
  O8  Na2  O15  .  3_4755  150.2(3)  146.8(3)  153.9(3)
  O9  Na2  O11  1_4555  .  122.1(3)  119.4(3)  124.9(3)
  O9  Na2  O14  1_4555  4_5645  131.3(3)  119.9(2)  142.0(2)
  O9  Na2  O15  1_4555  3_4755  80.2(3)  75.9(3)  84.3(3)
  O11  Na2  O14  .  4_5645  79.7(3)  68.1(2)  91.3(3)
  O11  Na2  O15  .  3_4755  155.1(3)  149.0(3)  161.5(3)
  O14  Na2  O15  4_5645  3_4755  93.7(3)  81.7(3)  106.6(4)
  O2  Na3  O3  1_5655  .  74.4(2)  67.4(2)  82.7(2)
  O2  Na3  O4  1_5655  1_5655  51.8(2)  46.1(2)  58.0(2)
  O2  Na3  O5  1_5655  .  77.0(2)  72.4(2)  81.6(2)
  O2  Na3  O7  1_5655  3_4655  108.5(2)  100.2(2)  117.3(2)
  O2  Na3  O9  1_5655  3_4655  153.4(3)  142.4(3)  165.2(3)
  O2  Na3  O16  1_5655  3_4655  126.0(3)  110.3(3)  134.9(3)
  O3  Na3  O4  .  1_5655  93.4(3)  92.4(3)  94.5(3)
  O3  Na3  O5  .  .  109.1(3)  98.6(3)  119.5(3)
  O3  Na3  O7  .  3_4655  77.5(2)  73.7(2)  81.6(3)
  O3  Na3  O9  .  3_4655  80.8(2)  74.8(3)  86.7(3)
  O3  Na3  O16  .  3_4655  157.8(4)  154.4(4)  161.6(3)
  O4  Na3  O5  1_5655  .  115.0(3)  111.9(3)  117.4(3)
  O4  Na3  O7  1_5655  3_4655  66.8(2)  64.8(3)  68.4(3)
  O4  Na3  O9  1_5655  3_4655  122.3(3)  117.5(3)  126.7(3)
  O4  Na3  O16  1_5655  3_4655  96.3(3)  81.9(3)  106.1(3)
  O5  Na3  O7  .  3_4655  171.4(3)  163.0(3)  179.8(3)
  O5  Na3  O9  .  3_4655  119.9(2)  117.1(2)  122.7(2)
  O5  Na3  O16  .  3_4655  83.2(3)  78.7(3)  87.2(3)
  O7  Na3  O9  3_4655  3_4655  56.3(2)  53.98(19)  58.4(2)
  O7  Na3  O16  3_4655  3_4655  89.5(3)  81.1(3)  95.1(3)
  O9  Na3  O16  3_4655  3_4655  78.2(3)  74.3(3)  81.4(3)
  O1  Na4  O3  .  .  93.0(4)  82.7(4)  103.9(4)
  O1  Na4  O8  .  3_5655  77.7(3)  73.9(3)  81.8(3)
  O1  Na4  O9  .  3_4655  155.9(3)  151.1(3)  161.0(3)
  O1  Na4  O10  .  3_5655  82.8(3)  78.6(2)  87.1(3)
  O1  Na4  O10  .  3_5755  78.5(3)  74.7(3)  82.3(2)
  O1  Na4  O11  .  3_5755  80.3(3)  76.1(3)  84.5(3)
  O3  Na4  O8  .  3_5655  157.7(3)  153.9(3)  162.4(3)
  O3  Na4  O9  .  3_4655  81.2(3)  69.9(3)  92.6(3)
  O3  Na4  O10  .  3_5655  103.2(3)  95.5(3)  110.8(3)
  O3  Na4  O10  .  3_5755  76.5(3)  68.8(2)  84.3(3)
  O3  Na4  O11  .  3_5755  129.9(3)  120.7(2)  138.8(2)
  O8  Na4  O9  3_5655  3_4655  99.8(3)  93.7(3)  105.5(3)
  O8  Na4  O10  3_5655  3_5655  57.4(2)  56.3(2)  58.6(2)
  O8  Na4  O10  3_5655  3_5755  118.8(3)  117.7(3)  120.1(3)
  O8  Na4  O11  3_5655  3_5755  67.4(2)  66.4(2)  68.6(2)
  O9  Na4  O10  3_4655  3_5655  76.2(2)  75.2(2)  77.2(2)
  O9  Na4  O10  3_4655  3_5755  121.9(3)  120.6(3)  123.1(3)
  O9  Na4  O11  3_4655  3_5755  121.1(3)  120.2(3)  122.0(3)
  O10  Na4  O10  3_5655  3_5755  161.0(3)  160.2(3)  162.2(3)
  O10  Na4  O11  3_5655  3_5755  124.2(3)  121.7(3)  126.9(3)
  O10  Na4  O11  3_5755  3_5755  53.7(2)  52.1(2)  55.5(2)
  O3  Na5  O4  3_5755  3_5655  100.3(3)  98.8(3)  102.0(3)
  O3  Na5  O7  3_5755  1_5655  84.3(2)  80.6(2)  88.3(2)
  O3  Na5  O9  3_5755  .  153.6(3)  147.3(3)  160.2(4)
  O3  Na5  O10  3_5755  1_6555  86.5(3)  81.9(3)  91.2(3)
  O3  Na5  O13  3_5755  3_5655  90.2(3)  77.6(2)  102.7(3)
  O4  Na5  O7  3_5655  1_5655  73.4(3)  72.0(3)  74.8(3)
  O4  Na5  O9  3_5655  .  78.7(3)  77.9(3)  79.7(3)
  O4  Na5  O10  3_5655  1_6555  162.7(4)  160.0(4)  166.1(4)
  O4  Na5  O13  3_5655  3_5655  117.4(3)  112.4(3)  122.5(3)
  O7  Na5  O9  1_5655  .  70.0(2)  67.3(2)  72.7(3)
  O7  Na5  O10  1_5655  1_6555  92.1(3)  86.5(3)  97.7(3)
  O7  Na5  O13  1_5655  3_5655  166.7(3)  159.3(3)  175.2(4)
  O9  Na5  O10  .  1_6555  88.1(3)  85.0(3)  91.5(3)
  O9  Na5  O13  .  3_5655  113.7(2)  103.2(2)  124.6(3)
  O10  Na5  O13  1_6555  3_5655  77.3(3)  76.2(3)  78.4(3)
  O2  Na6  O8  .  2_6655  89.2(3)  88.2(3)  90.7(3)
  O2  Na6  O11  .  2_6655  81.4(3)  78.2(3)  84.9(3)
  O2  Na6  O12  .  1_5455  69.3(3)  66.3(3)  72.5(3)
  O2  Na6  O12  .  .  94.7(3)  80.9(3)  108.3(3)
  O2  Na6  O13  .  .  98.0(3)  88.0(3)  107.4(3)
  O2  Na6  O14  .  3_5555  159.0(3)  154.4(3)  165.7(3)
  O8  Na6  O11  2_6655  2_6655  55.1(2)  52.53(19)  58.0(2)
  O8  Na6  O12  2_6655  1_5455  122.9(3)  120.5(3)  125.5(3)
  O8  Na6  O12  2_6655  .  65.9(3)  63.6(3)  68.2(3)
  O8  Na6  O13  2_6655  .  125.0(2)  122.5(2)  127.8(2)
  O8  Na6  O14  2_6655  3_5555  75.9(2)  69.3(2)  82.4(3)
  O11  Na6  O12  2_6655  1_5455  69.4(3)  67.8(3)  70.5(3)
  O11  Na6  O12  2_6655  .  120.3(3)  115.3(3)  125.8(3)
  O11  Na6  O13  2_6655  .  173.1(3)  169.5(3)  177.8(3)
  O11  Na6  O14  2_6655  3_5555  81.1(3)  75.8(3)  86.2(3)
  O12  Na6  O12  1_5455  .  159.6(4)  151.7(4)  167.3(4)
  O12  Na6  O13  1_5455  .  110.1(3)  107.5(3)  112.9(3)
  O12  Na6  O14  1_5455  3_5555  109.9(3)  98.9(3)  120.8(3)
  O12  Na6  O13  .  .  59.2(3)  58.6(3)  60.1(3)
  O12  Na6  O14  .  3_5555  88.7(3)  87.2(3)  90.0(3)
  O13  Na6  O14  .  3_5555  99.0(3)  94.0(3)  103.8(3)
loop_
 _geom_bond_atom_site_label_1
 _geom_bond_atom_site_label_2
 _geom_bond_site_ssg_symmetry_2
 _geom_bond_distance_av
 _geom_bond_distance_min
 _geom_bond_distance_max
  La1  O1  3_4555  3.343(7)  2.893(8)  3.845(8)
  La1  O1  3_4655  2.757(8)  2.626(8)  2.941(8)
  La1  O3  3_4655  3.355(7)  2.711(7)  3.959(7)
  La1  O4  .  2.492(9)  2.438(10)  2.561(10)
  La1  O7  3_4555  2.490(6)  2.445(6)  2.525(6)
  La1  O9  3_4655  2.523(6)  2.483(6)  2.554(6)
  La1  O10  1_5455  2.537(8)  2.483(9)  2.587(9)
  La1  O13  3_4555  2.425(6)  2.369(6)  2.465(6)
  La1  O15  1_5455  2.782(11)  2.656(12)  2.893(12)
  La1  O16  3_4655  2.414(11)  2.346(11)  2.664(11)
  La2  O1  4_6555  2.799(10)  2.678(11)  2.881(11)
  La2  O2  1_5655  2.485(7)  2.355(7)  2.605(7)
  La2  O5  .  2.438(6)  2.376(6)  2.469(6)
  La2  O6  4_6555  2.534(12)  2.481(12)  2.659(12)
  La2  O8  2_6655  2.502(7)  2.439(7)  2.552(7)
  La2  O11  2_6755  2.532(6)  2.505(6)  2.578(6)
  La2  O12  .  2.495(12)  2.445(13)  2.525(13)
  La2  O14  1_5655  3.426(7)  2.766(7)  4.058(7)
  La2  O15  2_6655  3.304(8)  2.813(8)  3.822(8)
  La2  O15  2_6755  2.813(8)  2.635(9)  3.051(9)
  P1  O8  .  1.504(8)  1.481(8)  1.526(8)
  P1  O10  .  1.536(10)  1.516(12)  1.562(12)
  P1  O11  .  1.519(8)  1.489(8)  1.552(8)
  P1  O15  .  1.541(10)  1.505(12)  1.592(12)
  P2  O3  .  1.530(8)  1.446(9)  1.610(9)
  P2  O12  .  1.531(14)  1.509(15)  1.604(15)
  P2  O13  .  1.552(7)  1.527(7)  1.601(7)
  P2  O16  .  1.511(8)  1.490(10)  1.578(10)
  P3  O1  .  1.538(10)  1.522(11)  1.557(11)
  P3  O6  .  1.540(14)  1.526(14)  1.580(14)
  P3  O7  .  1.550(8)  1.530(8)  1.573(8)
  P3  O9  .  1.555(8)  1.530(8)  1.574(8)
  P4  O2  .  1.548(8)  1.492(9)  1.611(9)
  P4  O4  .  1.541(11)  1.483(12)  1.576(12)
  P4  O5  .  1.536(7)  1.501(7)  1.564(7)
  P4  O14  .  1.505(9)  1.458(10)  1.567(10)
  Na1  O5  .  2.512(9)  2.430(9)  2.620(9)
  Na1  O6  4_6555  2.310(14)  2.296(14)  2.350(14)
  Na1  O8  4_5555  2.537(9)  2.439(10)  2.587(10)
  Na1  O11  4_5455  2.493(8)  2.395(9)  2.717(9)
  Na1  O12  3_4655  2.337(14)  2.297(14)  2.366(14)
  Na1  O14  .  3.318(8)  2.779(9)  4.062(9)
  Na1  O14  1_5655  2.407(9)  2.222(9)  2.507(9)
  Na2  O6  1_4555  2.831(9)  2.659(10)  3.144(10)
  Na2  O6  1_4655  2.603(9)  2.361(10)  2.713(10)
  Na2  O7  1_4655  2.529(8)  2.393(9)  2.668(9)
  Na2  O8  .  3.035(8)  2.775(9)  3.302(9)
  Na2  O9  1_4555  2.689(8)  2.619(9)  2.758(9)
  Na2  O11  .  2.774(8)  2.602(8)  2.946(8)
  Na2  O14  4_5645  2.371(9)  2.317(10)  2.404(10)
  Na2  O15  3_4755  2.465(10)  2.336(11)  2.606(11)
  Na3  O2  1_5655  3.077(8)  2.723(9)  3.461(9)
  Na3  O3  .  2.480(8)  2.348(9)  2.622(9)
  Na3  O4  1_5655  2.510(7)  2.462(7)  2.569(7)
  Na3  O5  .  2.404(8)  2.359(8)  2.456(8)
  Na3  O7  3_4655  2.717(8)  2.593(8)  2.839(8)
  Na3  O9  3_4655  2.676(8)  2.543(8)  2.804(8)
  Na3  O16  3_4655  2.486(8)  2.269(9)  2.617(9)
  Na4  O1  .  2.443(9)  2.366(11)  2.530(11)
  Na4  O3  .  2.380(9)  2.339(10)  2.431(10)
  Na4  O8  3_5655  2.544(9)  2.428(10)  2.665(10)
  Na4  O9  3_4655  2.757(8)  2.618(9)  2.895(9)
  Na4  O10  3_5655  2.644(7)  2.491(7)  2.798(7)
  Na4  O10  3_5755  2.783(7)  2.587(7)  2.978(7)
  Na4  O11  3_5755  2.752(8)  2.698(9)  2.810(9)
  Na5  O3  3_5755  2.382(8)  2.362(8)  2.406(8)
  Na5  O4  3_5655  2.349(10)  2.330(12)  2.362(12)
  Na5  O7  1_5655  2.470(8)  2.405(9)  2.523(9)
  Na5  O9  .  2.491(8)  2.368(8)  2.604(8)
  Na5  O10  1_6555  2.306(10)  2.263(11)  2.349(11)
  Na5  O13  3_5655  2.456(8)  2.404(8)  2.505(8)
  Na6  O2  .  2.353(8)  2.226(8)  2.499(8)
  Na6  O8  2_6655  2.741(8)  2.529(9)  2.957(9)
  Na6  O11  2_6655  2.539(8)  2.496(8)  2.576(8)
  Na6  O12  1_5455  2.799(9)  2.717(9)  2.939(9)
  Na6  O12  .  2.645(9)  2.559(10)  2.819(10)
  Na6  O13  .  2.368(8)  2.339(8)  2.403(8)
  Na6  O14  3_5555  2.529(9)  2.362(9)  2.706(9)
loop_
 _refln_index_h
 _refln_index_k
 _refln_index_l
 _refln_index_m_1
 _refln_F_squared_calc
 _refln_F_squared_meas
 _refln_F_squared_sigma
 _refln_observed_status
  1  0  0  1  11.74  7.53  5.65  <
  1  0  0  2  3.87  -1.88  7.53  <
  2  0  0  0  11.23  3.77  11.30  <
  2  0  0  1  2.72  7.53  7.53  <
  2  0  0  2  0.01  -11.30  9.41  <
  3  0  0  1  2.08  11.30  11.30  <
  3  0  0  2  1.90  0.00  13.18  <
  4  0  0  0  5409.66  4809.39  107.49  o
  4  0  0  1  0.26  15.06  13.18  <
  4  0  0  2  65.29  64.03  15.07  o
  5  0  0  1  128.59  129.96  16.95  o
  5  0  0  2  34.25  33.89  15.06  <
  6  0  0  0  35.35  54.61  18.82  <
  6  0  0  1  712.36  805.28  29.53  o
  6  0  0  2  14.61  -3.77  11.30  <
  7  0  0  1  28.79  32.01  15.06  <
  7  0  0  2  1.84  1.88  13.18  <
  8  0  0  0  228421.00  244470.00  4025.04  o
  8  0  0  1  1.73  -3.77  15.06  <
  8  0  0  2  39.52  16.95  15.07  <
  9  0  0  1  84.52  88.51  20.71  o
  9  0  0  2  5.10  -18.83  20.71  <
  10  0  0  0  60.53  50.84  32.02  <
  10  0  0  1  98.43  62.14  28.27  <
  10  0  0  2  23.44  0.00  24.48  <
  11  0  0  1  54.26  58.37  33.89  <
  11  0  0  2  12.37  22.59  30.12  <
  12  0  0  0  64276.60  61514.90  1307.08  o
  12  0  0  1  74.76  -1.88  39.56  <
  12  0  0  2  72.21  -11.30  35.79  <
  13  0  0  1  253.91  214.70  54.66  o
  13  0  0  2  81.16  35.78  43.32  <
  14  0  0  0  1.21  -16.95  65.90  <
  14  0  0  1  469.06  578.29  82.69  o
  14  0  0  2  21.21  33.89  47.07  <
  15  0  0  1  37.00  28.24  54.61  <
  15  0  0  2  30.96  0.00  48.96  <
  16  0  0  0  12417.60  13179.10  529.38  o
  16  0  0  1  0.11  -28.24  52.72  <
  16  0  0  2  39.96  -26.36  58.37  <
  17  0  0  1  207.15  152.54  75.36  <
  17  0  0  2  3.79  50.84  69.66  <
  18  0  0  0  46.17  -24.48  107.33  <
  18  0  0  1  159.50  154.41  82.86  <
  18  0  0  2  42.64  -30.13  69.67  <
  0  1  0  -1  580.53  537.45  22.99  o
  0  1  0  0  13.33  229.73  18.34  o
  0  1  0  1  1520.41  1511.29  45.53  o
  0  1  0  2  0.07  -5.65  16.95  <
  1  1  0  -1  0.22  -3.77  7.53  <
  1  1  0  0  3671.01  3740.81  66.07  o
  1  1  0  1  24.42  20.71  11.30  <
  1  1  0  2  6.54  -11.30  11.30  <
  2  1  0  -2  1.73  5.65  7.53  <
  2  1  0  -1  16.91  -1.88  9.42  <
  2  1  0  0  1120.49  955.37  33.52  o
  2  1  0  1  6.82  16.95  11.29  <
  2  1  0  2  3.98  -13.18  13.18  <
  3  1  0  -2  0.58  11.30  9.41  <
  3  1  0  -1  148.51  116.81  15.14  o
  3  1  0  0  9400.78  9877.55  151.53  o
  3  1  0  1  56.38  35.78  13.20  <
  3  1  0  2  51.43  13.18  13.20  <
  4  1  0  -2  2.35  -5.65  9.41  <
  4  1  0  -1  1053.39  1069.33  35.77  o
  4  1  0  0  86.88  80.98  16.96  o
  4  1  0  1  1255.00  1269.34  41.44  o
  4  1  0  2  1.97  -11.30  11.30  <
  5  1  0  -2  9.89  13.18  11.30  <
  5  1  0  -1  54.52  56.49  18.83  <
  5  1  0  0  19286.40  20389.50  253.75  o
  5  1  0  1  879.10  937.61  39.25  o
  5  1  0  2  13.17  -3.77  13.18  <
  6  1  0  -2  21.91  60.26  13.14  o
  6  1  0  -1  46.79  48.96  13.18  o
  6  1  0  0  22327.00  22548.60  303.02  o
  6  1  0  1  11.54  0.00  16.95  <
  6  1  0  2  6.74  28.24  15.06  <
  7  1  0  -2  1.34  3.77  13.18  <
  7  1  0  -1  636.56  584.39  30.44  o
  7  1  0  0  6595.40  6555.95  128.19  o
  7  1  0  1  76.24  75.33  22.60  o
  7  1  0  2  10.22  -7.53  16.95  <
  8  1  0  -2  14.11  7.53  15.06  <
  8  1  0  -1  124.42  71.56  18.90  o
  8  1  0  0  15.57  -11.30  13.18  <
  8  1  0  1  2538.16  2464.68  74.37  o
  8  1  0  2  23.43  7.53  26.36  <
  9  1  0  -2  0.57  0.00  16.95  <
  9  1  0  -1  94.19  58.38  26.39  <
  9  1  0  0  257.81  267.47  37.65  o
  9  1  0  1  193.78  124.30  33.98  o
  9  1  0  2  2.44  -15.06  28.24  <
  10  1  0  -2  0.39  -41.42  22.58  <
  10  1  0  -1  68.78  0.00  24.50  <
  10  1  0  0  5053.67  4841.38  125.40  o
  10  1  0  1  66.34  37.66  30.14  <
  10  1  0  2  29.42  -16.95  30.13  <
  11  1  0  -2  8.72  -28.24  28.24  <
  11  1  0  -1  240.90  216.59  41.47  o
  11  1  0  0  1814.22  1792.44  90.68  o
  11  1  0  1  485.41  414.46  56.66  o
  11  1  0  2  2.04  -18.83  30.12  <
  12  1  0  -2  10.43  26.36  33.89  <
  12  1  0  -1  766.63  814.07  84.68  o
  12  1  0  0  41.97  -1.88  35.78  <
  12  1  0  1  857.49  917.77  78.97  o
  12  1  0  2  4.87  13.18  37.66  <
  13  1  0  -2  6.20  37.66  43.30  <
  13  1  0  -1  184.02  259.89  60.18  o
  13  1  0  0  2315.80  2281.46  124.71  o
  13  1  0  1  356.42  284.41  60.37  o
  13  1  0  2  31.86  13.18  41.43  <
  14  1  0  -2  0.16  -24.48  47.07  <
  14  1  0  -1  77.47  26.36  45.21  <
  14  1  0  0  11885.40  11838.90  308.72  o
  14  1  0  1  12.84  18.83  48.96  <
  14  1  0  2  7.85  -15.06  47.07  <
  15  1  0  -2  3.89  39.54  52.72  <
  15  1  0  -1  682.68  593.45  98.12  o
  15  1  0  0  1439.17  1611.80  120.06  o
  15  1  0  1  184.07  246.70  69.62  o
  15  1  0  2  24.67  5.65  50.84  <
  16  1  0  -2  27.70  43.31  62.13  <
  16  1  0  -1  191.28  96.04  67.84  <
  16  1  0  0  7.62  -3.77  58.37  <
  16  1  0  1  1439.05  1560.78  127.79  o
  16  1  0  2  20.42  15.06  54.60  <
  17  1  0  -2  0.68  62.14  64.01  <
  17  1  0  -1  204.91  97.93  75.38  <
  17  1  0  0  281.40  214.69  86.68  <
  17  1  0  1  311.54  301.33  90.41  o
  17  1  0  2  8.73  41.42  60.25  <
  18  1  0  -2  108.66  58.37  77.22  <
  18  1  0  -1  29.34  9.41  69.67  <
  18  1  0  0  14685.70  14985.00  438.76  o
  18  1  0  1  7.51  99.79  82.83  <
  18  1  0  2  171.32  43.31  79.13  <
  0  2  0  -2  30.69  22.60  13.19  <
  0  2  0  -1  26.40  48.96  18.82  <
  0  2  0  0  436549.00  327794.00  8087.14  o
  0  2  0  1  11.23  9.41  18.83  <
  0  2  0  2  496.83  670.92  46.51  o
  1  2  0  -2  4.54  -5.65  11.30  <
  1  2  0  -1  33.49  26.36  13.19  <
  1  2  0  0  17.37  26.36  13.18  <
  1  2  0  1  2606.01  2614.79  52.90  o
  1  2  0  2  6.98  3.77  15.06  <
  2  2  0  -2  4.90  3.77  11.30  <
  2  2  0  -1  209.02  203.48  18.86  o
  2  2  0  0  27.68  7.53  13.19  <
  2  2  0  1  811.68  935.47  36.93  o
  2  2  0  2  16.00  18.83  16.95  <
  3  2  0  -2  2.50  -1.88  11.30  <
  3  2  0  -1  0.81  5.65  13.18  <
  3  2  0  0  687.95  731.69  33.70  o
  3  2  0  1  2996.93  2931.70  63.31  o
  3  2  0  2  62.42  9.42  16.97  <
  4  2  0  -2  10.79  39.54  13.16  <
  4  2  0  -1  20.96  18.83  13.18  <
  4  2  0  0  33226.80  32713.80  384.10  o
  4  2  0  1  58.26  26.36  16.97  <
  4  2  0  2  793.24  835.18  41.25  o
  5  2  0  -2  16.23  -1.88  15.06  <
  5  2  0  -1  28.35  47.07  15.05  o
  5  2  0  0  162.53  175.16  20.69  o
  5  2  0  1  1772.98  1790.25  47.04  o
  5  2  0  2  142.38  37.67  18.94  <
  6  2  0  -2  0.90  28.24  16.94  <
  6  2  0  -1  170.94  214.72  26.28  o
  6  2  0  0  0.61  7.53  15.06  <
  6  2  0  1  88.14  101.69  26.35  o
  6  2  0  2  3.01  0.00  20.71  <
  7  2  0  -2  98.44  3.77  17.00  <
  7  2  0  -1  57.59  45.19  18.84  <
  7  2  0  0  3528.78  3443.27  106.75  o
  7  2  0  1  732.03  659.68  56.78  o
  7  2  0  2  11.98  0.00  28.24  <
  8  2  0  -2  12.37  37.66  20.70  <
  8  2  0  -1  21.47  9.41  20.71  <
  8  2  0  0  91180.30  88514.00  1240.91  o
  8  2  0  1  0.38  22.59  28.24  <
  8  2  0  2  139.16  248.58  43.17  o
  9  2  0  -2  8.74  -1.88  22.60  <
  9  2  0  -1  10.01  43.31  28.23  <
  9  2  0  0  445.87  440.84  54.65  o
  9  2  0  1  1013.58  1070.76  73.30  o
  9  2  0  2  51.20  48.96  33.89  <
  10  2  0  -2  4.40  -39.54  24.47  <
  10  2  0  -1  169.26  235.41  43.23  o
  10  2  0  0  45.33  -5.65  32.02  <
  10  2  0  1  159.61  205.27  47.03  o
  10  2  0  2  47.17  -13.18  32.01  <
  11  2  0  -2  7.70  26.36  32.01  <
  11  2  0  -1  61.27  -3.77  32.02  <
  11  2  0  0  2294.34  2359.27  107.21  o
  11  2  0  1  1117.14  1059.37  81.26  o
  11  2  0  2  0.28  -24.48  33.89  <
  12  2  0  -2  106.84  47.08  37.69  <
  12  2  0  -1  60.88  5.65  32.02  <
  12  2  0  0  27222.50  25804.80  477.36  o
  12  2  0  1  9.36  0.00  37.66  <
  12  2  0  2  119.53  192.07  48.89  o
  13  2  0  -2  0.53  9.41  41.42  <
  13  2  0  -1  219.46  192.09  56.52  o
  13  2  0  0  1144.70  1221.37  93.98  o
  13  2  0  1  95.05  150.64  52.69  <
  13  2  0  2  22.05  32.01  45.19  <
  14  2  0  -2  10.87  7.53  45.19  <
  14  2  0  -1  2534.16  2838.07  138.04  o
  14  2  0  0  42.37  20.71  47.08  <
  14  2  0  1  160.38  154.42  64.03  <
  14  2  0  2  2.01  22.59  47.07  <
  15  2  0  -2  62.56  -37.66  47.07  <
  15  2  0  -1  12.92  -3.77  50.84  <
  15  2  0  0  1522.70  1504.37  120.71  o
  15  2  0  1  455.01  472.77  88.50  o
  15  2  0  2  1.70  7.53  52.72  <
  16  2  0  -2  3.38  -18.83  54.60  <
  16  2  0  -1  2.36  15.06  56.49  <
  16  2  0  0  10027.20  11023.20  340.87  o
  16  2  0  1  21.06  -47.07  54.60  <
  16  2  0  2  184.01  177.01  79.10  <
  17  2  0  -2  12.93  33.89  69.67  <
  17  2  0  -1  166.74  122.40  75.35  <
  17  2  0  0  1090.55  1109.91  133.75  o
  17  2  0  1  184.86  124.29  77.24  <
  17  2  0  2  58.73  97.91  77.19  <
  18  2  0  -2  35.56  26.36  79.08  <
  18  2  0  -1  19.69  41.42  77.20  <
  18  2  0  0  15.51  -11.30  80.96  <
  0  3  0  -2  25.00  64.02  20.69  o
  0  3  0  -1  4820.22  5078.87  103.16  o
  0  3  0  0  199.71  222.26  35.75  o
  0  3  0  1  473.84  418.30  47.24  o
  0  3  0  2  54.02  180.77  43.20  o
  1  3  0  -2  14.07  -15.06  11.29  <
  1  3  0  -1  332.96  299.57  24.61  o
  1  3  0  0  18857.30  19143.10  236.78  o
  1  3  0  1  78.59  45.19  18.86  <
  1  3  0  2  172.41  199.63  28.20  o
  2  3  0  -2  32.99  -7.53  15.07  <
  2  3  0  -1  1.36  20.71  16.94  <
  2  3  0  0  2080.35  1932.76  61.73  o
  2  3  0  1  0.04  -15.06  16.94  <
  2  3  0  2  1.08  11.30  20.71  <
  3  3  0  -2  0.08  -9.41  13.18  <
  3  3  0  -1  803.67  820.24  39.51  o
  3  3  0  0  25784.80  24906.90  342.93  o
  3  3  0  1  19.40  15.06  18.83  <
  3  3  0  2  344.36  344.72  39.56  o
  4  3  0  -2  2.24  11.30  15.06  <
  4  3  0  -1  9120.82  9188.07  115.20  o
  4  3  0  0  322.06  570.79  42.57  o
  4  3  0  1  348.32  342.85  43.34  o
  4  3  0  2  55.66  -3.77  24.49  <
  5  3  0  -2  43.35  7.53  15.08  <
  5  3  0  -1  6.98  -18.83  15.06  <
  5  3  0  0  21405.30  20822.70  320.70  o
  5  3  0  1  474.12  410.72  43.50  o
  5  3  0  2  230.56  182.69  39.62  o
  6  3  0  -2  12.92  18.83  15.06  <
  6  3  0  -1  25.89  37.66  24.47  <
  6  3  0  0  3181.88  3295.64  106.85  o
  6  3  0  1  14.56  1.88  28.24  <
  6  3  0  2  0.33  22.59  30.12  <
  7  3  0  -2  0.03  -1.88  24.48  <
  7  3  0  -1  937.84  995.41  63.86  o
  7  3  0  0  12195.10  12105.20  245.81  o
  7  3  0  1  72.22  96.04  37.65  <
  7  3  0  2  101.01  84.74  37.67  <
  8  3  0  -2  52.05  -7.53  24.49  <
  8  3  0  -1  2852.52  2654.74  99.70  o
  8  3  0  0  164.07  222.22  45.13  o
  8  3  0  1  1112.09  1023.62  77.61  o
  8  3  0  2  91.42  -9.42  32.03  <
  9  3  0  -2  0.36  15.06  30.12  <
  9  3  0  -1  277.99  246.74  49.01  o
  9  3  0  0  7110.33  6630.73  184.99  o
  9  3  0  1  99.69  41.43  37.69  <
  9  3  0  2  174.65  116.76  43.36  <
  10  3  0  -2  35.52  20.71  33.90  <
  10  3  0  -1  248.62  165.74  43.42  o
  10  3  0  0  937.62  882.02  79.32  o
  10  3  0  1  4.55  35.78  37.65  <
  10  3  0  2  14.23  1.88  37.66  <
  11  3  0  -2  154.28  92.28  37.71  <
  11  3  0  -1  2563.43  2461.45  110.10  o
  11  3  0  0  9251.51  8859.72  231.99  o
  11  3  0  1  116.01  177.01  52.68  o
  11  3  0  2  56.63  13.18  39.55  <
  12  3  0  -2  13.83  -39.54  32.00  <
  12  3  0  -1  1276.84  1389.31  93.82  o
  12  3  0  0  118.10  124.28  48.96  <
  12  3  0  1  788.64  870.47  90.24  o
  12  3  0  2  6.04  -28.24  41.42  <
  13  3  0  -2  42.20  -3.77  39.55  <
  13  3  0  -1  489.16  487.87  69.70  o
  13  3  0  0  5539.76  5400.45  188.34  o
  13  3  0  1  313.06  303.22  65.93  o
  13  3  0  2  153.29  114.87  56.52  <
  14  3  0  -2  20.32  -7.53  43.31  <
  14  3  0  -1  68.02  73.44  54.60  <
  14  3  0  0  4883.83  5158.28  185.13  o
  14  3  0  1  0.00  -28.24  52.72  <
  14  3  0  2  0.01  32.01  56.48  <
  15  3  0  -2  26.91  -32.01  48.95  <
  15  3  0  -1  712.56  697.05  97.99  o
  15  3  0  0  7458.32  7998.31  264.66  o
  15  3  0  1  622.15  695.11  105.37  o
  15  3  0  2  53.21  37.66  65.91  <
  16  3  0  -2  51.41  -18.83  56.49  <
  16  3  0  -1  1225.35  1404.03  135.22  o
  16  3  0  0  18.14  3.77  65.90  <
  16  3  0  1  1464.11  1347.68  149.19  o
  17  3  0  -2  36.16  3.77  64.02  <
  17  3  0  -1  236.21  229.75  82.87  <
  17  3  0  0  1718.96  1576.02  168.15  o
  0  4  0  -2  52.07  1.88  22.61  <
  0  4  0  -1  586.59  518.21  54.83  o
  0  4  0  0  118625.00  113802.00  1790.11  o
  0  4  0  1  78.40  43.31  33.91  <
  0  4  0  2  549.03  472.87  71.73  o
  1  4  0  -2  3.27  18.83  16.94  <
  1  4  0  -1  2453.44  2580.69  70.58  o
  1  4  0  0  47.86  33.89  20.72  <
  1  4  0  1  4625.16  4472.08  102.13  o
  1  4  0  2  0.17  -15.06  28.24  <
  2  4  0  -2  3.17  -9.41  16.94  <
  2  4  0  -1  276.64  275.00  32.02  o
  2  4  0  0  0.67  9.41  24.48  <
  2  4  0  1  360.17  365.42  48.96  o
  2  4  0  2  5.95  0.00  30.13  <
  3  4  0  -2  5.10  13.18  18.83  <
  3  4  0  -1  3661.46  3585.20  84.12  o
  3  4  0  0  142.02  148.77  35.77  o
  3  4  0  1  2321.78  2389.68  97.72  o
  3  4  0  2  14.81  30.13  33.89  <
  4  4  0  -2  10.36  -9.41  18.83  <
  4  4  0  -1  338.27  431.36  48.77  o
  4  4  0  0  4297.21  4238.41  125.42  o
  4  4  0  1  6.94  -7.53  30.13  <
  4  4  0  2  380.01  401.20  56.47  o
  5  4  0  -2  20.22  20.71  24.48  <
  5  4  0  -1  1895.35  1715.46  71.04  o
  5  4  0  0  93.91  96.04  37.66  <
  5  4  0  1  4471.36  4407.00  129.21  o
  5  4  0  2  89.68  43.31  39.56  <
  6  4  0  -2  3.78  -24.48  24.47  <
  6  4  0  -1  129.17  129.94  37.66  o
  6  4  0  0  20.70  56.49  33.88  <
  6  4  0  1  68.83  80.97  41.42  <
  6  4  0  2  12.94  39.54  39.54  <
  7  4  0  -2  35.13  -33.89  26.35  <
  7  4  0  -1  1889.01  1956.56  90.18  o
  7  4  0  0  5930.31  5534.67  166.52  o
  7  4  0  1  3902.88  3713.43  131.85  o
  7  4  0  2  0.08  -32.01  37.65  <
  8  4  0  -2  18.64  -11.30  30.13  <
  8  4  0  -1  280.00  329.60  52.66  o
  8  4  0  0  20103.70  18468.40  377.68  o
  8  4  0  1  2.61  -13.18  33.89  <
  8  4  0  2  136.70  97.92  48.98  <
  9  4  0  -2  36.28  13.18  32.01  <
  9  4  0  -1  509.19  587.75  69.53  o
  9  4  0  0  2061.74  2029.81  107.69  o
  9  4  0  1  2294.60  2286.59  113.24  o
  9  4  0  2  1.90  15.06  48.95  <
  10  4  0  -2  19.75  9.41  33.89  <
  10  4  0  -1  910.39  1019.49  86.35  o
  10  4  0  0  92.83  77.20  45.20  <
  10  4  0  1  19.94  16.95  45.19  <
  10  4  0  2  47.75  32.01  52.73  <
  11  4  0  -2  13.64  -26.36  35.77  <
  11  4  0  -1  432.18  297.61  58.60  o
  11  4  0  0  929.16  755.62  85.24  o
  11  4  0  1  2487.68  2399.79  143.78  o
  11  4  0  2  27.43  37.66  58.37  <
  12  4  0  -2  22.30  -41.42  37.65  <
  12  4  0  -1  50.51  -11.30  43.31  <
  12  4  0  0  1612.07  1672.27  124.22  o
  12  4  0  1  41.32  -7.53  48.96  <
  12  4  0  2  98.17  33.89  64.04  <
  13  4  0  -2  2.72  -64.02  37.64  <
  13  4  0  -1  366.59  267.45  67.92  o
  13  4  0  0  447.81  501.02  86.56  o
  13  4  0  1  1477.32  1462.73  137.64  o
  13  4  0  2  48.33  82.85  69.66  <
  14  4  0  -2  2.19  45.19  52.71  <
  14  4  0  -1  1299.53  1059.23  113.73  o
  14  4  0  0  107.56  50.84  64.04  <
  14  4  0  1  16.65  -33.89  62.13  <
  15  4  0  -2  1.20  5.65  56.49  <
  15  4  0  -1  365.36  284.39  82.95  o
  15  4  0  0  2343.67  2140.69  162.94  o
  16  4  0  -2  170.20  28.25  69.72  <
  16  4  0  -1  50.74  3.77  69.67  <
  0  5  0  -2  26.92  497.10  82.33  o
  0  5  0  -1  1586.39  1588.04  96.18  o
  0  5  0  0  5.19  60.25  37.64  <
  0  5  0  1  737.81  1002.36  125.72  o
  0  5  0  2  133.67  171.36  77.19  <
  1  5  0  -2  2.66  80.96  26.32  o
  1  5  0  -1  218.23  184.57  33.95  o
  1  5  0  0  2201.29  2305.76  103.17  o
  1  5  0  1  47.15  56.49  39.54  <
  1  5  0  2  492.23  482.22  69.71  o
  2  5  0  -2  0.36  -16.95  22.59  <
  2  5  0  -1  2.66  32.01  32.00  <
  2  5  0  0  821.50  682.14  70.11  o
  2  5  0  1  5.80  -37.66  35.77  <
  2  5  0  2  5.78  -11.30  48.95  <
  3  5  0  -2  15.59  -11.30  26.36  <
  3  5  0  -1  732.49  819.67  73.24  o
  3  5  0  0  14653.50  14155.60  304.09  o
  3  5  0  1  0.22  62.14  43.29  <
  3  5  0  2  585.86  606.58  88.50  o
  4  5  0  -2  0.82  28.24  28.24  <
  4  5  0  -1  4415.14  4535.01  127.48  o
  4  5  0  0  1317.19  1110.37  89.33  o
  4  5  0  1  474.78  463.38  65.95  o
  4  5  0  2  92.45  75.32  64.03  <
  5  5  0  -2  4.70  -18.83  28.24  <
  5  5  0  -1  118.27  99.80  39.56  <
  5  5  0  0  13377.10  12930.90  302.45  o
  5  5  0  1  328.61  212.82  56.64  o
  5  5  0  2  574.08  606.57  101.67  o
  6  5  0  -2  12.82  16.95  35.77  <
  6  5  0  -1  156.05  165.72  45.19  o
  6  5  0  0  1868.39  1861.45  107.53  o
  6  5  0  1  17.28  0.00  47.07  <
  6  5  0  2  2.00  0.00  56.49  <
  7  5  0  -2  0.18  -16.95  32.01  <
  7  5  0  -1  1765.39  1785.94  97.97  o
  7  5  0  0  4154.52  3930.22  158.35  o
  7  5  0  1  115.89  124.28  58.37  <
  7  5  0  2  298.67  404.91  94.05  o
  8  5  0  -2  27.60  0.00  35.78  <
  8  5  0  -1  582.52  486.03  71.77  o
  8  5  0  0  115.36  133.70  56.48  <
  8  5  0  1  140.91  203.37  67.75  o
  8  5  0  2  72.15  11.30  64.03  <
  9  5  0  -2  9.82  39.54  43.30  <
  9  5  0  -1  642.84  789.35  93.89  o
  9  5  0  0  1338.50  1523.00  121.93  o
  9  5  0  1  36.12  47.07  54.60  <
  9  5  0  2  312.61  514.15  105.24  o
  10  5  0  -2  17.14  35.78  45.19  <
  10  5  0  -1  304.41  314.52  73.44  o
  10  5  0  0  189.56  212.80  69.66  o
  10  5  0  1  22.28  16.95  56.49  <
  10  5  0  2  18.03  -50.84  60.24  <
  11  5  0  -2  7.62  -9.41  41.42  <
  11  5  0  -1  2494.13  2918.49  156.48  o
  11  5  0  0  3634.55  3670.34  186.73  o
  11  5  0  1  12.13  -15.06  62.14  <
  11  5  0  2  343.00  122.42  75.49  <
  12  5  0  -2  3.16  -13.18  52.72  <
  12  5  0  -1  1709.45  1638.34  135.98  o
  12  5  0  0  267.30  80.98  67.90  <
  12  5  0  1  103.51  131.81  79.08  <
  13  5  0  -2  12.90  -67.78  50.82  <
  13  5  0  -1  942.77  994.85  126.13  o
  13  5  0  0  3520.75  3314.69  191.62  o
  14  5  0  -2  2.31  -52.72  56.48  <
  14  5  0  -1  215.96  297.54  88.44  o
  15  5  0  -2  0.69  28.24  75.31  <
  0  6  0  -2  249.01  9.42  62.24  <
  0  6  0  -1  1503.41  1121.76  136.68  o
  0  6  0  0  8638.83  8607.72  362.33  o
  0  6  0  1  165.09  114.87  86.64  <
  1  6  0  -2  3.81  28.24  37.65  <
  1  6  0  -1  4599.37  4933.66  177.17  o
  1  6  0  0  171.42  156.30  58.39  <
  1  6  0  1  2162.22  2236.79  156.26  o
  1  6  0  2  16.02  30.13  248.54  <
  2  6  0  -2  0.01  -35.77  30.12  <
  2  6  0  -1  205.03  184.55  52.75  o
  2  6  0  0  68.47  -88.50  48.93  <
  2  6  0  1  53.31  11.30  77.21  <
  2  6  0  2  0.09  16.95  135.57  <
  3  6  0  -2  11.65  52.72  37.65  <
  3  6  0  -1  5630.95  5597.82  197.00  o
  3  6  0  0  11.24  -26.36  43.30  <
  3  6  0  1  1692.59  1768.40  212.87  o
  3  6  0  2  6.65  39.54  97.91  <
  4  6  0  -2  50.13  -30.13  37.66  <
  4  6  0  -1  1032.08  1136.35  112.80  o
  4  6  0  0  5037.96  5723.88  243.54  o
  4  6  0  1  1.68  -18.83  62.13  <
  4  6  0  2  2.33  20.71  94.14  <
  5  6  0  -2  9.10  13.18  39.54  <
  5  6  0  -1  3893.69  3783.38  168.77  o
  5  6  0  0  514.61  463.37  99.90  o
  5  6  0  1  1939.67  1861.08  169.94  o
  5  6  0  2  2.38  75.32  101.67  <
  6  6  0  -2  13.91  16.95  41.42  <
  6  6  0  -1  1.65  11.30  48.95  <
  6  6  0  0  1.37  22.59  62.13  <
  6  6  0  1  105.91  79.09  73.45  <
  7  6  0  -2  27.37  26.36  48.96  <
  7  6  0  -1  3820.12  3901.65  171.36  o
  7  6  0  0  593.43  523.67  111.23  o
  7  6  0  1  1425.94  1519.17  169.42  o
  8  6  0  -2  103.56  71.56  56.50  <
  8  6  0  -1  1316.68  1177.99  122.88  o
  8  6  0  0  292.25  210.93  86.69  <
  8  6  0  1  57.73  -1.88  77.21  <
  9  6  0  -2  21.01  33.89  54.60  <
  9  6  0  -1  3020.80  3481.77  173.16  o
  9  6  0  0  235.90  271.18  97.90  <
  10  6  0  -2  59.57  -7.53  56.49  <
  10  6  0  -1  0.38  26.36  62.13  <
  10  6  0  0  131.38  -20.71  80.99  <
  11  6  0  -2  161.06  26.36  60.30  <
  11  6  0  -1  1198.59  957.33  124.91  o
  12  6  0  -2  30.85  -52.72  56.48  <
  0  7  0  -2  21.60  111.09  73.41  <
  0  7  0  -1  95.51  69.67  116.75  <
  1  7  0  -2  196.10  135.59  60.30  <
  1  7  0  -1  0.29  15.06  248.54  <
  1  7  0  0  9.03  -48.96  131.80  <
  2  7  0  -2  1.80  -7.53  69.67  <
  2  7  0  -1  3.78  -5.65  131.80  <
  2  7  0  0  81.04  148.76  129.91  <
  3  7  0  -2  88.60  92.27  88.50  <
  3  7  0  -1  114.98  146.88  97.91  <
  3  7  0  0  1642.22  1990.66  206.52  o
  4  7  0  -2  76.62  109.21  62.13  <
  4  7  0  -1  3.86  60.25  88.49  <
  5  7  0  -2  190.68  5.65  65.96  <
  5  7  0  -1  276.84  406.79  92.14  o
  6  7  0  -2  0.28  33.89  67.78  <
  6  7  0  -1  135.46  177.01  86.60  <
  7  7  0  -2  105.57  90.39  77.21  <
  7  7  0  -1  434.80  450.15  114.88  o
  8  7  0  -2  13.85  20.71  77.20  <
  9  7  0  -2  67.19  -30.13  75.32  <
  1  0  1  1  25.62  39.55  7.52  o
  1  0  -1  1  23.90  28.25  7.53  o
  1  0  1  2  1.11  3.77  7.53  <
  1  0  -1  2  0.93  16.95  7.53  <
  2  0  1  0  76806.20  96425.80  1426.14  o
  2  0  -1  0  76838.90  99420.80  1341.60  o
  2  0  1  1  356.34  343.41  15.17  o
  2  0  -1  1  358.03  343.41  18.94  o
  2  0  1  2  33.00  24.48  11.30  <
  2  0  -1  2  30.30  15.07  11.31  <
  3  0  1  1  25.37  3.77  11.30  <
  3  0  -1  1  26.14  30.13  9.41  o
  3  0  1  2  12.61  16.95  13.18  <
  3  0  -1  2  12.99  1.88  11.30  <
  4  0  1  0  301.26  286.49  26.43  o
  4  0  -1  0  264.40  303.42  26.27  o
  4  0  1  1  436.63  412.95  24.62  o
  4  0  -1  1  428.68  414.82  20.82  o
  4  0  1  2  4.36  -3.77  13.18  <
  4  0  -1  2  4.18  -3.77  9.41  <
  5  0  1  1  95.16  97.93  15.06  o
  5  0  -1  1  105.25  90.40  15.09  o
  5  0  1  2  12.98  3.77  15.06  <
  5  0  -1  2  12.60  1.88  11.30  <
  6  0  1  0  115628.00  122947.00  1653.87  o
  6  0  -1  0  115563.00  124594.00  1621.04  o
  6  0  1  1  1563.22  1594.69  39.34  o
  6  0  -1  1  1569.85  1604.16  39.31  o
  6  0  1  2  8.92  39.54  16.93  <
  6  0  -1  2  9.11  48.96  15.04  o
  7  0  1  1  307.80  310.86  24.48  o
  7  0  -1  1  291.17  273.17  24.55  o
  7  0  1  2  25.96  37.66  18.82  <
  7  0  -1  2  27.01  22.60  15.07  <
  8  0  1  0  34840.90  35918.60  559.79  o
  8  0  -1  0  34844.20  35259.30  568.97  o
  8  0  1  1  72.55  7.53  15.10  <
  8  0  -1  1  49.68  16.95  15.08  <
  8  0  1  2  3.43  -5.65  13.18  <
  8  0  -1  2  3.09  -1.88  15.06  <
  9  0  1  1  92.00  94.16  20.71  o
  9  0  -1  1  78.37  60.26  18.85  o
  9  0  1  2  11.51  15.06  24.48  <
  9  0  -1  2  12.97  -20.71  20.71  <
  10  0  1  0  34790.80  34202.00  753.17  o
  10  0  -1  0  34689.90  33890.70  587.18  o
  10  0  1  1  480.98  440.87  47.20  o
  10  0  -1  1  476.62  461.59  45.26  o
  10  0  1  2  33.05  3.77  26.37  <
  10  0  -1  2  29.13  -9.41  22.60  <
  11  0  1  1  47.07  71.55  33.88  <
  11  0  -1  1  58.51  52.72  35.78  <
  11  0  1  2  27.05  -5.65  30.13  <
  11  0  -1  2  31.32  16.95  32.01  <
  12  0  1  0  572.43  655.64  103.49  o
  12  0  -1  0  634.78  838.45  107.01  o
  12  0  1  1  196.74  158.20  43.36  o
  12  0  -1  1  211.31  227.88  52.71  o
  12  0  1  2  113.14  86.62  43.33  <
  12  0  -1  2  101.83  56.49  39.57  <
  13  0  1  1  103.30  86.62  48.97  <
  13  0  -1  1  91.82  97.92  47.07  <
  13  0  1  2  34.32  -15.06  37.66  <
  13  0  -1  2  37.54  9.41  39.55  <
  14  0  1  0  4536.94  5100.84  284.79  o
  14  0  -1  0  4533.28  4709.47  280.92  o
  14  0  1  1  205.53  152.54  58.42  <
  14  0  -1  1  187.64  167.60  64.04  <
  14  0  1  2  49.84  48.96  47.07  <
  14  0  -1  2  50.20  -26.36  41.42  <
  15  0  1  1  232.97  216.57  71.58  o
  15  0  -1  1  207.99  96.04  58.45  <
  15  0  1  2  41.04  75.32  56.48  <
  15  0  -1  2  41.81  9.41  50.84  <
  16  0  1  0  14616.80  15036.00  583.81  o
  16  0  -1  0  14473.20  15510.40  585.18  o
  16  0  1  1  230.23  173.26  71.60  <
  16  0  -1  1  212.90  169.49  71.59  <
  16  0  1  2  29.96  20.71  58.37  <
  16  0  -1  2  32.16  -122.39  52.67  <
  17  0  1  1  133.74  139.35  75.32  <
  17  0  -1  1  127.50  145.00  75.31  <
  17  0  1  2  43.22  -7.53  65.91  <
  17  0  -1  2  36.77  -35.78  60.25  <
  18  0  1  0  9942.07  9744.19  496.03  o
  18  0  -1  0  9920.66  10661.90  502.27  o
  18  0  1  1  823.63  938.24  133.56  o
  18  0  -1  1  843.34  947.67  135.46  o
  18  0  1  2  14.72  26.36  75.32  <
  18  0  -1  2  14.26  -52.72  69.66  <
  1  1  1  -2  2.38  -5.65  7.53  <
  1  1  -1  -2  2.50  -5.65  5.65  <
  1  1  1  -1  43.01  39.55  7.54  o
  1  1  -1  -1  41.02  41.44  9.42  o
  1  1  1  0  2104.44  2196.77  46.41  o
  1  1  -1  0  2080.78  2063.40  45.85  o
  1  1  1  1  101.72  103.60  15.07  o
  1  1  -1  1  101.30  90.41  16.97  o
  1  1  1  2  15.72  3.77  13.18  <
  1  1  -1  2  14.26  3.77  13.18  <
  2  1  1  -2  7.27  5.65  7.53  <
  2  1  -1  -2  7.61  3.77  7.53  <
  2  1  1  -1  491.99  460.61  19.09  o
  2  1  -1  -1  502.46  428.54  19.35  o
  2  1  1  0  29325.80  30515.90  345.12  o
  2  1  -1  0  29234.30  31025.00  358.54  o
  2  1  1  1  1279.39  1310.33  33.72  o
  2  1  -1  1  1270.73  1300.84  41.35  o
  2  1  1  2  47.88  60.26  13.17  o
  2  1  -1  2  47.80  50.84  18.83  <
  3  1  1  -2  1.25  -1.88  9.41  <
  3  1  -1  -2  1.20  9.41  9.41  <
  3  1  1  -1  20.30  18.83  11.30  <
  3  1  -1  -1  22.83  24.48  11.30  <
  3  1  1  0  4459.28  4932.16  76.62  o
  3  1  -1  0  4687.89  4717.87  87.58  o
  3  1  1  1  103.60  101.71  18.84  o
  3  1  -1  1  99.84  109.24  16.94  o
  3  1  1  2  14.59  3.77  13.18  <
  3  1  -1  2  12.78  16.95  15.06  <
  4  1  1  -2  3.74  0.00  9.41  <
  4  1  -1  -2  4.01  28.24  11.29  <
  4  1  1  -1  32.31  9.42  13.19  <
  4  1  -1  -1  22.72  20.71  11.30  <
  4  1  1  0  47.48  22.60  15.08  <
  4  1  -1  0  2.53  26.36  15.06  <
  4  1  1  1  142.14  137.50  18.84  o
  4  1  -1  1  137.07  173.29  22.53  o
  4  1  1  2  14.88  16.95  16.95  <
  4  1  -1  2  15.73  -3.77  13.18  <
  5  1  1  -2  2.82  0.00  11.30  <
  5  1  -1  -2  2.56  -15.06  11.29  <
  5  1  1  -1  283.75  292.06  26.36  o
  5  1  -1  -1  278.17  284.52  20.70  o
  5  1  1  0  8956.53  9177.13  154.30  o
  5  1  -1  0  9006.30  9053.17  122.20  o
  5  1  1  1  152.99  192.12  24.41  o
  5  1  -1  1  179.79  165.76  24.51  o
  5  1  1  2  1.39  7.53  13.18  <
  5  1  -1  2  0.98  -3.77  16.95  <
  6  1  1  -2  23.09  3.77  11.30  <
  6  1  -1  -2  21.28  -11.30  11.30  <
  6  1  1  -1  1758.48  1765.36  50.97  o
  6  1  -1  -1  1768.42  1782.41  41.42  o
  6  1  1  0  8863.63  8163.93  152.52  o
  6  1  -1  0  8897.74  8191.33  131.56  o
  6  1  1  1  1899.60  1872.73  55.05  o
  6  1  -1  1  1898.70  2097.60  44.90  o
  6  1  1  2  131.61  50.85  20.80  <
  6  1  -1  2  132.24  75.33  20.79  o
  7  1  1  -2  25.88  -22.60  13.17  <
  7  1  -1  -2  26.02  11.30  13.19  <
  7  1  1  -1  212.46  186.48  20.79  o
  7  1  -1  -1  213.59  190.25  20.78  o
  7  1  1  0  2991.89  2737.24  78.21  o
  7  1  -1  0  2722.16  2879.72  60.51  o
  7  1  1  1  285.77  325.90  33.81  o
  7  1  -1  1  304.86  286.35  24.55  o
  7  1  1  2  54.94  84.74  24.46  o
  7  1  -1  2  57.92  71.56  22.59  o
  8  1  1  -2  1.37  -13.18  15.06  <
  8  1  -1  -2  1.60  -9.41  15.06  <
  8  1  1  -1  884.77  961.66  37.20  o
  8  1  -1  -1  885.67  935.26  37.39  o
  8  1  1  0  17811.00  16761.20  277.24  o
  8  1  -1  0  17775.10  17013.90  236.01  o
  8  1  1  1  277.68  312.69  35.71  o
  8  1  -1  1  276.30  346.60  35.62  o
  8  1  1  2  13.21  18.83  24.48  <
  8  1  -1  2  11.59  32.01  28.24  <
  9  1  1  -2  20.63  5.65  16.95  <
  9  1  -1  -2  21.05  -20.71  15.06  <
  9  1  1  -1  88.77  69.68  26.38  <
  9  1  -1  -1  84.74  64.03  20.73  o
  9  1  1  0  242.29  301.36  37.55  o
  9  1  -1  0  335.87  291.98  37.77  o
  9  1  1  1  4.96  0.00  24.48  <
  9  1  -1  1  9.16  43.31  28.23  <
  9  1  1  2  19.04  16.95  26.36  <
  9  1  -1  2  19.26  37.66  30.12  <
  10  1  1  -2  4.65  -9.41  24.48  <
  10  1  -1  -2  5.73  -22.59  22.59  <
  10  1  1  -1  1.34  -22.59  22.59  <
  10  1  -1  -1  0.91  -7.53  24.48  <
  10  1  1  0  3162.32  2918.71  96.56  o
  10  1  -1  0  3158.07  2894.12  107.82  o
  10  1  1  1  1148.31  1138.85  71.69  o
  10  1  -1  1  1153.01  1133.20  71.73  o
  10  1  1  2  0.26  28.24  30.12  <
  10  1  -1  2  1.45  -22.59  28.24  <
  11  1  1  -2  10.79  -16.95  30.12  <
  11  1  -1  -2  11.36  -26.36  30.12  <
  11  1  1  -1  308.19  286.30  50.89  o
  11  1  -1  -1  287.95  312.66  47.05  o
  11  1  1  0  969.32  868.97  73.84  o
  11  1  -1  0  959.86  959.43  73.51  o
  11  1  1  1  483.17  553.86  63.90  o
  11  1  -1  1  474.90  518.07  58.30  o
  11  1  1  2  24.84  20.71  33.89  <
  11  1  -1  2  23.18  -11.30  32.01  <
  12  1  1  -2  38.10  9.41  33.90  <
  12  1  -1  -2  33.25  28.24  37.66  <
  12  1  1  -1  1232.37  1359.32  91.90  o
  12  1  -1  -1  1267.89  1380.12  93.84  o
  12  1  1  0  14412.30  14281.10  326.41  o
  12  1  -1  0  14440.60  14623.60  324.61  o
  12  1  1  1  892.68  893.30  77.27  o
  12  1  -1  1  906.25  1117.58  82.21  o
  12  1  1  2  47.04  -16.95  32.01  <
  12  1  -1  2  50.20  -16.95  35.78  <
  13  1  1  -2  19.32  -7.53  39.54  <
  13  1  -1  -2  20.18  -18.83  35.77  <
  13  1  1  -1  439.89  325.88  64.22  o
  13  1  -1  -1  467.11  429.49  69.76  o
  13  1  1  0  2272.44  2336.07  124.22  o
  13  1  -1  0  2295.61  2313.48  124.46  o
  13  1  1  1  145.17  114.87  50.86  <
  13  1  -1  1  134.82  60.26  43.35  <
  13  1  1  2  94.13  11.30  43.33  <
  13  1  -1  2  91.73  16.95  39.57  <
  14  1  1  -2  8.15  -48.96  43.30  <
  14  1  -1  -2  9.33  7.53  48.96  <
  14  1  1  -1  4.19  -32.01  43.30  <
  14  1  -1  -1  5.04  -13.18  41.42  <
  14  1  1  0  13608.40  13506.90  336.48  o
  14  1  -1  0  13608.80  14107.20  335.63  o
  14  1  1  1  1095.41  1017.73  101.99  o
  14  1  -1  1  1068.06  985.67  98.23  o
  14  1  1  2  15.32  33.89  47.07  <
  14  1  -1  2  15.14  33.89  45.19  <
  15  1  1  -2  41.18  22.60  54.61  <
  15  1  -1  -2  39.57  -26.36  47.07  <
  15  1  1  -1  449.71  546.24  94.04  o
  15  1  -1  -1  450.39  418.16  82.92  o
  15  1  1  0  505.01  469.04  81.06  o
  15  1  -1  0  510.27  612.20  90.24  o
  15  1  1  1  150.35  99.81  56.52  <
  15  1  -1  1  166.08  71.56  60.30  <
  15  1  1  2  11.52  20.71  52.72  <
  15  1  -1  2  12.66  15.06  48.96  <
  16  1  1  -2  30.29  5.65  56.49  <
  16  1  -1  -2  33.90  -32.01  52.72  <
  16  1  1  -1  83.71  65.91  64.03  <
  16  1  -1  -1  66.74  86.62  69.66  <
  16  1  1  0  10739.60  11599.50  343.81  o
  16  1  -1  0  10703.70  11394.20  345.36  o
  16  1  1  1  86.85  28.25  56.50  <
  16  1  -1  1  80.67  82.85  62.14  <
  16  1  1  2  19.57  69.67  58.36  <
  16  1  -1  2  18.29  75.32  65.89  <
  17  1  1  -2  3.30  -45.19  56.48  <
  17  1  -1  -2  3.77  -9.41  60.25  <
  17  1  1  -1  379.16  241.08  84.88  <
  17  1  -1  -1  385.49  195.88  79.27  <
  17  1  1  0  227.19  222.22  84.75  <
  17  1  -1  0  259.57  327.69  92.22  o
  17  1  1  1  78.50  47.07  71.56  <
  17  1  -1  1  80.78  107.33  75.31  <
  17  1  1  2  9.37  -18.83  60.25  <
  17  1  -1  2  9.38  37.66  75.31  <
  18  1  1  -2  19.07  -60.25  67.77  <
  18  1  -1  -2  16.46  -7.53  71.55  <
  18  1  1  -1  5.24  -39.54  71.55  <
  18  1  -1  -1  15.69  -80.97  65.88  <
  18  1  1  0  226.72  205.27  92.29  <
  18  1  -1  0  203.09  269.29  96.00  <
  18  1  1  1  859.54  810.14  128.20  o
  18  1  -1  1  859.09  957.10  139.25  o
  18  1  1  2  67.65  -80.97  75.30  <
  18  1  -1  2  67.50  54.61  75.32  <
  1  2  1  -2  0.96  -7.53  9.41  <
  1  2  -1  -2  1.33  16.95  13.18  <
  1  2  1  -1  117.16  126.20  16.93  o
  1  2  -1  -1  126.37  118.67  18.85  o
  1  2  1  0  3026.61  3136.38  66.96  o
  1  2  -1  0  3382.00  2746.08  75.35  o
  1  2  1  1  1342.74  1336.89  43.48  o
  1  2  -1  1  1312.21  1304.71  45.37  o
  1  2  1  2  78.04  79.09  20.71  o
  1  2  -1  2  77.47  101.69  22.57  o
  2  2  1  -2  23.52  11.30  11.30  <
  2  2  -1  -2  23.26  3.77  11.30  <
  2  2  1  -1  904.68  860.86  28.68  o
  2  2  -1  -1  913.81  845.78  38.17  o
  2  2  1  0  35978.80  36354.00  383.75  o
  2  2  -1  0  35977.30  36212.60  563.09  o
  2  2  1  1  4683.69  4740.98  65.44  o
  2  2  -1  1  4682.05  4642.12  91.79  o
  2  2  1  2  174.36  267.45  24.24  o
  2  2  -1  2  159.45  248.61  33.75  o
  3  2  1  -2  1.91  -5.65  13.18  <
  3  2  -1  -2  2.17  -13.18  11.29  <
  3  2  1  -1  37.51  75.32  18.80  o
  3  2  -1  -1  49.91  43.31  13.19  o
  3  2  1  0  5417.73  5404.66  97.39  o
  3  2  -1  0  5194.36  5472.46  84.95  o
  3  2  1  1  1784.21  1830.81  50.57  o
  3  2  -1  1  1787.94  1828.93  48.72  o
  3  2  1  2  37.39  79.09  20.68  o
  3  2  -1  2  37.74  75.32  18.80  o
  4  2  1  -2  12.07  0.00  13.18  <
  4  2  -1  -2  11.66  -13.18  13.18  <
  4  2  1  -1  460.65  456.15  32.06  o
  4  2  -1  -1  465.66  490.08  30.05  o
  4  2  1  0  2428.77  2541.26  68.93  o
  4  2  -1  0  2424.29  2628.28  62.13  o
  4  2  1  1  465.14  486.19  37.62  o
  4  2  -1  1  465.70  474.89  26.34  o
  4  2  1  2  10.31  -3.77  18.83  <
  4  2  -1  2  9.44  0.00  13.18  <
  5  2  1  -2  4.50  3.77  15.06  <
  5  2  -1  -2  5.49  1.88  13.18  <
  5  2  1  -1  738.43  667.55  36.19  o
  5  2  -1  -1  685.58  684.45  37.72  o
  5  2  1  0  2319.11  2437.44  55.38  o
  5  2  -1  0  2542.01  2319.26  70.16  o
  5  2  1  1  1080.99  1086.49  47.12  o
  5  2  -1  1  1156.08  1169.63  47.07  o
  5  2  1  2  60.08  37.66  22.61  <
  5  2  -1  2  62.47  75.32  22.59  o
  6  2  1  -2  30.42  9.41  16.95  <
  6  2  -1  -2  28.65  64.02  15.03  o
  6  2  1  -1  1456.84  1565.06  53.94  o
  6  2  -1  -1  1467.45  1506.56  52.57  o
  6  2  1  0  29636.40  28434.70  414.22  o
  6  2  -1  0  29728.90  29474.50  400.33  o
  6  2  1  1  2420.59  2401.96  56.91  o
  6  2  -1  1  2414.47  2424.62  71.72  o
  6  2  1  2  120.97  188.32  35.70  o
  6  2  -1  2  122.80  169.49  30.07  o
  7  2  1  -2  16.76  5.65  18.83  <
  7  2  -1  -2  16.25  16.95  15.06  <
  7  2  1  -1  78.78  99.81  26.34  o
  7  2  -1  -1  73.13  105.45  18.79  o
  7  2  1  0  1701.10  1657.41  62.61  o
  7  2  -1  0  1677.20  1806.48  65.14  o
  7  2  1  1  503.43  542.65  58.32  o
  7  2  -1  1  480.61  518.14  52.66  o
  7  2  1  2  59.24  45.19  32.02  <
  7  2  -1  2  58.64  -16.95  26.37  <
  8  2  1  -2  0.58  -24.48  18.82  <
  8  2  -1  -2  0.42  -18.83  13.18  <
  8  2  1  -1  316.07  269.38  35.89  o
  8  2  -1  -1  301.90  267.49  39.62  o
  8  2  1  0  12089.50  12197.90  239.70  o
  8  2  -1  0  12074.90  12341.20  235.58  o
  8  2  1  1  51.71  5.65  28.25  <
  8  2  -1  1  40.37  -3.77  24.48  <
  8  2  1  2  9.13  11.30  30.13  <
  8  2  -1  2  7.49  -33.89  24.47  <
  9  2  1  -2  6.54  47.07  26.35  <
  9  2  -1  -2  7.42  9.41  24.48  <
  9  2  1  -1  345.76  320.24  43.38  o
  9  2  -1  -1  333.72  384.28  46.99  o
  9  2  1  0  4759.78  4666.89  139.10  o
  9  2  -1  0  4674.94  4520.58  137.73  o
  9  2  1  1  875.99  948.07  71.37  o
  9  2  -1  1  869.88  900.94  71.52  o
  9  2  1  2  16.01  -18.83  30.12  <
  9  2  -1  2  18.06  11.30  30.13  <
  10  2  1  -2  5.81  35.78  30.12  <
  10  2  -1  -2  7.04  3.77  28.24  <
  10  2  1  -1  352.25  303.27  49.06  o
  10  2  -1  -1  359.64  269.37  45.37  o
  10  2  1  0  31490.30  31068.00  506.26  o
  10  2  -1  0  31380.20  30319.40  512.53  o
  10  2  1  1  2057.70  2075.79  96.14  o
  10  2  -1  1  2072.98  2277.75  98.80  o
  10  2  1  2  132.38  133.70  41.43  o
  10  2  -1  2  125.46  175.13  47.03  o
  11  2  1  -2  5.69  -11.30  33.89  <
  11  2  -1  -2  5.58  -37.66  32.00  <
  11  2  1  -1  808.85  706.70  68.14  o
  11  2  -1  -1  778.50  672.76  68.13  o
  11  2  1  0  2877.99  2902.71  118.82  o
  11  2  -1  0  2737.18  3089.22  120.44  o
  11  2  1  1  670.77  614.23  69.85  o
  11  2  -1  1  640.65  717.84  71.40  o
  11  2  1  2  76.62  15.06  37.68  <
  11  2  -1  2  82.44  45.19  37.68  <
  12  2  1  -2  96.05  -18.83  37.68  <
  12  2  -1  -2  89.73  33.90  32.04  <
  12  2  1  -1  351.37  389.89  56.44  o
  12  2  -1  -1  387.11  472.79  62.00  o
  12  2  1  0  2745.86  2712.90  121.02  o
  12  2  -1  0  2799.70  2903.73  122.07  o
  12  2  1  1  136.93  56.49  39.59  <
  12  2  -1  1  143.68  86.62  41.47  <
  12  2  1  2  44.98  20.71  39.55  <
  12  2  -1  2  37.98  43.31  39.54  <
  13  2  1  -2  4.34  37.66  43.30  <
  13  2  -1  -2  4.93  -3.77  37.66  <
  13  2  1  -1  415.62  318.33  67.94  o
  13  2  -1  -1  378.85  344.69  65.97  o
  13  2  1  0  2387.18  2332.26  117.28  o
  13  2  -1  0  2539.65  2251.43  114.81  o
  13  2  1  1  64.48  143.11  52.68  <
  13  2  -1  1  46.99  32.01  41.43  <
  13  2  1  2  0.77  -16.95  39.54  <
  13  2  -1  2  0.53  -45.19  37.65  <
  14  2  1  -2  20.12  -26.36  41.42  <
  14  2  -1  -2  20.24  24.48  48.96  <
  14  2  1  -1  268.04  214.70  62.20  o
  14  2  -1  -1  265.59  137.48  58.49  <
  14  2  1  0  316.33  420.00  77.08  o
  14  2  -1  0  355.05  278.75  67.90  o
  14  2  1  1  859.94  870.51  105.49  o
  14  2  -1  1  838.68  923.25  101.55  o
  14  2  1  2  37.86  97.91  54.58  <
  14  2  -1  2  37.62  11.30  47.08  <
  15  2  1  -2  1.95  -37.66  43.30  <
  15  2  -1  -2  1.44  65.90  54.59  <
  15  2  1  -1  307.11  312.64  77.21  o
  15  2  -1  -1  300.84  209.05  67.89  o
  15  2  1  0  926.35  847.93  105.69  o
  15  2  -1  0  884.87  819.64  103.77  o
  15  2  1  1  327.85  216.59  69.79  o
  15  2  -1  1  279.01  293.80  77.20  o
  15  2  1  2  47.74  -16.95  60.26  <
  15  2  -1  2  45.44  9.41  54.61  <
  16  2  1  -2  27.07  -69.67  50.82  <
  16  2  -1  -2  29.64  -109.21  52.68  <
  16  2  1  -1  759.24  751.71  101.75  o
  16  2  -1  -1  739.45  770.54  107.33  o
  16  2  1  0  8970.11  9103.38  288.94  o
  16  2  -1  0  8887.11  9182.43  289.47  o
  16  2  1  1  43.44  48.96  64.02  <
  16  2  -1  1  39.04  41.42  64.02  <
  16  2  1  2  45.59  -37.66  62.13  <
  16  2  -1  2  48.42  77.20  64.01  <
  17  2  1  -2  79.07  22.60  69.68  <
  17  2  -1  -2  85.96  41.43  67.80  <
  17  2  1  -1  249.95  233.52  86.64  <
  17  2  -1  -1  271.88  214.69  92.32  <
  17  2  1  0  2032.97  2215.69  161.52  o
  17  2  -1  0  2026.00  2083.68  158.20  o
  17  2  1  1  218.84  128.06  77.26  <
  17  2  -1  1  247.41  145.01  79.16  <
  17  2  1  2  91.29  60.26  71.56  <
  17  2  -1  2  86.37  79.09  73.44  <
  18  2  1  -2  5.44  -5.65  71.55  <
  18  2  -1  -2  3.79  54.60  80.96  <
  18  2  1  -1  52.61  64.02  86.61  <
  18  2  -1  -1  48.00  105.44  90.37  <
  18  2  1  0  5903.75  5286.65  305.50  o
  18  2  -1  0  5898.13  6120.46  322.21  o
  1  3  1  -2  19.64  16.95  15.06  <
  1  3  -1  -2  21.06  5.65  15.07  <
  1  3  1  -1  762.03  718.44  36.06  o
  1  3  -1  -1  721.25  742.89  39.49  o
  1  3  1  0  8796.71  9341.03  151.98  o
  1  3  -1  0  9353.60  8879.17  173.11  o
  1  3  1  1  1353.07  1379.13  54.54  o
  1  3  -1  1  1364.50  1352.74  58.56  o
  1  3  1  2  138.39  258.00  33.69  o
  1  3  -1  2  127.81  178.90  30.06  o
  2  3  1  -2  24.31  43.31  13.17  o
  2  3  -1  -2  24.98  13.18  16.95  <
  2  3  1  -1  8228.75  7835.18  96.99  o
  2  3  -1  -1  8250.89  8097.45  126.94  o
  2  3  1  0  4395.42  4132.25  85.10  o
  2  3  -1  0  4243.34  4512.31  108.99  o
  2  3  1  1  1516.11  1432.23  47.86  o
  2  3  -1  1  1502.60  1485.04  52.97  o
  2  3  1  2  107.42  122.40  26.35  o
  2  3  -1  2  116.36  139.35  26.33  o
  3  3  1  -2  7.21  -11.30  13.18  <
  3  3  -1  -2  7.47  -9.41  13.18  <
  3  3  1  -1  487.33  491.86  33.90  o
  3  3  -1  -1  496.95  465.48  32.16  o
  3  3  1  0  12089.30  11949.10  188.50  o
  3  3  -1  0  12000.10  11985.90  186.32  o
  3  3  1  1  1936.49  1891.75  62.67  o
  3  3  -1  1  1975.40  1721.92  60.58  o
  3  3  1  2  135.73  101.69  24.52  o
  3  3  -1  2  134.29  124.29  33.91  o
  4  3  1  -2  0.55  3.77  16.95  <
  4  3  -1  -2  0.55  5.65  13.18  <
  4  3  1  -1  96.01  43.31  20.76  <
  4  3  -1  -1  71.74  107.34  16.89  o
  4  3  1  0  72.22  111.10  26.32  o
  4  3  -1  0  77.81  82.86  20.71  o
  4  3  1  1  212.34  242.96  31.96  o
  4  3  -1  1  212.31  297.58  41.29  o
  4  3  1  2  6.93  33.89  26.35  <
  4  3  -1  2  7.04  16.95  26.36  <
  5  3  1  -2  2.80  -9.41  13.18  <
  5  3  -1  -2  3.51  15.06  18.83  <
  5  3  1  -1  1101.39  1088.29  51.00  o
  5  3  -1  -1  1110.90  1126.03  47.06  o
  5  3  1  0  13724.10  13207.80  253.04  o
  5  3  -1  0  13628.70  13246.30  217.45  o
  5  3  1  1  940.10  1002.89  63.84  o
  5  3  -1  1  983.67  950.16  52.95  o
  5  3  1  2  56.11  37.66  30.14  <
  5  3  -1  2  50.58  88.50  31.99  <
  6  3  1  -2  16.19  11.30  16.95  <
  6  3  -1  -2  14.50  -7.53  18.83  <
  6  3  1  -1  4113.02  3841.12  106.87  o
  6  3  -1  -1  4065.75  3952.61  94.09  o
  6  3  1  0  8916.24  8840.92  193.32  o
  6  3  -1  0  8918.31  8639.02  178.93  o
  6  3  1  1  692.65  721.75  60.21  o
  6  3  -1  1  682.87  731.16  62.04  o
  6  3  1  2  90.86  58.38  33.91  <
  6  3  -1  2  105.30  18.83  32.05  <
  7  3  1  -2  18.62  -5.65  22.60  <
  7  3  -1  -2  20.08  -35.78  20.70  <
  7  3  1  -1  60.58  5.65  28.26  <
  7  3  -1  -1  34.56  67.79  30.11  <
  7  3  1  0  5895.21  5537.81  155.23  o
  7  3  -1  0  5529.61  5685.10  150.10  o
  7  3  1  1  1805.63  1811.27  84.87  o
  7  3  -1  1  1831.83  1505.66  81.00  o
  7  3  1  2  151.75  80.98  37.72  <
  7  3  -1  2  153.27  186.44  45.16  o
  8  3  1  -2  18.04  28.24  28.24  <
  8  3  -1  -2  16.90  -1.88  26.36  <
  8  3  1  -1  262.80  259.92  45.21  o
  8  3  -1  -1  272.92  244.86  43.36  o
  8  3  1  0  7985.41  7626.95  192.01  o
  8  3  -1  0  7955.01  7615.29  191.79  o
  8  3  1  1  266.21  167.62  43.44  o
  8  3  -1  1  266.39  280.63  48.95  o
  8  3  1  2  4.32  -32.01  32.00  <
  8  3  -1  2  4.86  -16.95  32.01  <
  9  3  1  -2  3.85  13.18  30.13  <
  9  3  -1  -2  4.55  15.06  28.24  <
  9  3  1  -1  800.21  782.11  67.90  o
  9  3  -1  -1  827.09  706.74  66.33  o
  9  3  1  0  5796.12  5346.37  163.23  o
  9  3  -1  0  5803.07  5702.59  165.76  o
  9  3  1  1  927.71  996.97  77.04  o
  9  3  -1  1  899.42  985.64  80.77  o
  9  3  1  2  156.54  35.78  35.85  <
  9  3  -1  2  149.59  79.09  39.60  <
  10  3  1  -2  88.13  43.31  33.92  <
  10  3  -1  -2  92.08  64.02  35.79  <
  10  3  1  -1  3032.65  3180.89  116.05  o
  10  3  -1  -1  3027.52  2950.43  113.87  o
  10  3  1  0  389.38  197.78  49.25  o
  10  3  -1  0  257.21  442.59  59.95  o
  10  3  1  1  1549.02  1408.58  91.11  o
  10  3  -1  1  1548.86  1632.97  95.79  o
  10  3  1  2  25.69  35.78  41.42  <
  10  3  -1  2  36.26  58.37  37.65  <
  11  3  1  -2  64.85  22.60  37.67  <
  11  3  -1  -2  65.69  35.78  35.79  <
  11  3  1  -1  521.28  527.48  67.81  o
  11  3  -1  -1  550.51  563.29  67.79  o
  11  3  1  0  4502.64  4156.00  153.85  o
  11  3  -1  0  4679.27  4075.37  153.94  o
  11  3  1  1  669.74  587.81  73.66  o
  11  3  -1  1  635.93  623.59  75.39  o
  11  3  1  2  67.75  73.44  48.96  <
  11  3  -1  2  66.05  50.84  45.20  <
  12  3  1  -2  5.19  -16.95  35.77  <
  12  3  -1  -2  6.14  -16.95  32.01  <
  12  3  1  -1  719.81  789.45  80.84  o
  12  3  -1  -1  728.94  674.52  75.50  o
  12  3  1  0  3986.38  4026.50  154.66  o
  12  3  -1  0  3974.14  3941.43  153.27  o
  12  3  1  1  38.45  71.55  45.18  <
  12  3  -1  1  39.75  80.97  48.94  <
  12  3  1  2  44.09  26.36  50.84  <
  12  3  -1  2  46.34  5.65  47.08  <
  13  3  1  -2  6.44  24.48  43.30  <
  13  3  -1  -2  6.44  32.01  43.30  <
  13  3  1  -1  763.34  672.63  79.35  o
  13  3  -1  -1  741.18  699.00  81.11  o
  13  3  1  0  4676.90  4281.33  169.11  o
  13  3  -1  0  4737.49  4837.30  171.27  o
  13  3  1  1  448.50  589.56  84.52  o
  13  3  -1  1  457.24  431.34  71.62  o
  13  3  1  2  75.87  45.19  54.62  <
  13  3  -1  2  70.24  107.33  54.59  <
  14  3  1  -2  24.28  -11.30  45.19  <
  14  3  -1  -2  27.39  37.66  48.95  <
  14  3  1  -1  650.43  553.86  83.07  o
  14  3  -1  -1  657.73  625.45  84.84  o
  14  3  1  0  4411.15  4717.99  190.76  o
  14  3  -1  0  4427.88  4289.14  186.03  o
  14  3  1  1  746.62  668.81  96.23  o
  14  3  -1  1  757.81  535.05  79.58  o
  14  3  1  2  57.03  26.36  56.49  <
  14  3  -1  2  59.30  3.77  64.03  <
  15  3  1  -2  13.47  -15.06  50.84  <
  15  3  -1  -2  12.76  -5.65  50.84  <
  15  3  1  -1  162.75  197.73  67.77  <
  15  3  -1  -1  154.93  180.78  67.77  <
  15  3  1  0  2811.19  2671.85  168.54  o
  15  3  -1  0  2643.42  2762.07  156.04  o
  15  3  1  1  846.59  619.86  105.91  o
  15  3  -1  1  828.40  832.75  111.15  o
  15  3  1  2  77.37  45.19  65.91  <
  15  3  -1  2  75.27  99.80  71.55  <
  16  3  1  -2  5.29  -60.25  50.82  <
  16  3  -1  -2  3.46  52.72  60.24  <
  16  3  1  -1  128.34  101.69  69.68  <
  16  3  -1  -1  111.70  154.41  71.53  <
  16  3  1  0  5072.63  5378.58  238.21  o
  16  3  -1  0  5091.08  5397.55  226.78  o
  16  3  1  1  20.47  88.50  75.30  <
  16  3  -1  1  22.73  22.59  79.08  <
  17  3  1  -2  18.36  -5.65  64.02  <
  17  3  -1  -2  21.52  -3.77  64.02  <
  17  3  1  -1  795.82  1104.00  135.04  o
  17  3  -1  -1  850.38  719.70  111.40  o
  17  3  1  0  2238.07  2044.30  198.57  o
  17  3  -1  0  2400.11  1963.43  173.06  o
  1  4  1  -2  13.00  28.24  18.82  <
  1  4  -1  -2  13.20  18.83  20.71  <
  1  4  1  -1  1893.84  1823.58  62.85  o
  1  4  -1  -1  1898.29  1823.59  68.50  o
  1  4  1  0  14598.20  15815.30  236.54  o
  1  4  -1  0  15053.70  15062.70  266.41  o
  1  4  1  1  2575.44  2517.04  72.30  o
  1  4  -1  1  2565.31  2637.86  91.98  o
  1  4  1  2  181.63  184.56  35.78  o
  1  4  -1  2  175.55  207.15  45.16  o
  2  4  1  -2  15.56  13.18  16.95  <
  2  4  -1  -2  14.16  11.30  20.71  <
  2  4  1  -1  2772.45  2876.44  74.55  o
  2  4  -1  -1  2808.54  3023.99  71.37  o
  2  4  1  0  1613.78  1688.46  65.53  o
  2  4  -1  0  1722.13  1741.52  64.01  o
  2  4  1  1  502.98  602.85  60.03  o
  2  4  -1  1  509.16  663.15  61.76  o
  2  4  1  2  88.29  114.87  39.53  <
  2  4  -1  2  78.23  101.68  41.41  <
  3  4  1  -2  11.16  -15.06  16.94  <
  3  4  -1  -2  10.20  -7.53  16.95  <
  3  4  1  -1  1237.30  1288.09  54.38  o
  3  4  -1  -1  1234.34  1244.71  54.63  o
  3  4  1  0  2414.45  2250.79  88.01  o
  3  4  -1  0  2117.71  2418.00  94.32  o
  3  4  1  1  1688.06  1737.28  78.94  o
  3  4  -1  1  1676.63  1857.98  87.67  o
  3  4  1  2  116.44  105.45  35.79  <
  3  4  -1  2  123.18  118.64  47.08  <
  4  4  1  -2  34.97  3.77  18.84  <
  4  4  -1  -2  36.44  -11.30  18.83  <
  4  4  1  -1  254.03  259.92  41.43  o
  4  4  -1  -1  247.67  254.27  39.54  o
  4  4  1  0  132.60  79.09  32.06  <
  4  4  -1  0  99.53  96.04  33.90  <
  4  4  1  1  351.94  291.95  45.32  o
  4  4  -1  1  359.94  374.83  54.60  o
  4  4  1  2  10.82  -22.59  30.12  <
  4  4  -1  2  9.91  -7.53  30.13  <
  5  4  1  -2  5.88  11.30  24.48  <
  5  4  -1  -2  5.07  -15.06  18.83  <
  5  4  1  -1  1637.58  1677.18  79.01  o
  5  4  -1  -1  1683.68  1671.62  69.89  o
  5  4  1  0  652.55  521.93  60.62  o
  5  4  -1  0  506.57  687.64  65.48  o
  5  4  1  1  2592.60  2473.05  100.85  o
  5  4  -1  1  2537.57  2380.41  99.19  o
  5  4  1  2  143.34  216.56  50.77  o
  5  4  -1  2  147.12  75.33  45.24  <
  6  4  1  -2  1.19  -5.65  26.36  <
  6  4  -1  -2  1.81  9.41  28.24  <
  6  4  1  -1  2636.95  2587.33  96.67  o
  6  4  -1  -1  2616.57  2538.17  98.75  o
  6  4  1  0  3097.12  2945.00  114.41  o
  6  4  -1  0  3073.35  2918.48  114.42  o
  6  4  1  1  364.55  339.04  54.67  o
  6  4  -1  1  367.34  312.67  54.71  o
  6  4  1  2  90.58  186.42  48.88  o
  6  4  -1  2  99.32  158.18  50.80  o
  7  4  1  -2  1.08  -7.53  26.36  <
  7  4  -1  -2  0.43  -18.83  28.24  <
  7  4  1  -1  1263.29  1293.43  77.17  o
  7  4  -1  -1  1253.18  1378.26  80.52  o
  7  4  1  0  3127.62  3227.98  122.07  o
  7  4  -1  0  3098.50  3176.89  122.23  o
  7  4  1  1  2331.25  2413.48  105.18  o
  7  4  -1  1  2372.55  2332.43  115.33  o
  7  4  1  2  98.72  65.91  47.09  <
  7  4  -1  2  90.60  82.85  47.08  <
  8  4  1  -2  17.44  -15.06  28.24  <
  8  4  -1  -2  16.63  -48.96  26.34  <
  8  4  1  -1  106.82  156.30  43.27  o
  8  4  -1  -1  121.66  146.88  45.17  o
  8  4  1  0  8658.06  8317.37  214.34  o
  8  4  -1  0  8762.41  8257.43  217.92  o
  8  4  1  1  85.05  -5.65  35.79  <
  8  4  -1  1  70.16  39.54  43.32  <
  8  4  1  2  7.77  7.53  41.42  <
  8  4  -1  2  7.21  -9.41  41.42  <
  9  4  1  -2  25.65  35.78  35.77  <
  9  4  -1  -2  24.97  35.78  33.89  <
  9  4  1  -1  1193.82  1251.68  82.71  o
  9  4  -1  -1  1155.84  1119.69  84.95  o
  9  4  1  0  7093.86  7049.70  197.51  o
  9  4  -1  0  7219.27  6624.06  197.00  o
  9  4  1  1  1285.99  1381.69  103.34  o
  9  4  -1  1  1258.06  1434.43  101.15  o
  9  4  1  2  88.53  22.60  45.21  <
  9  4  -1  2  88.34  39.54  48.97  <
  10  4  1  -2  4.53  -28.24  30.12  <
  10  4  -1  -2  3.44  -50.84  30.11  <
  10  4  1  -1  1064.82  1111.99  88.43  o
  10  4  -1  -1  1107.73  1134.65  90.38  o
  10  4  1  0  2816.87  2491.50  131.96  o
  10  4  -1  0  2786.36  2810.42  126.32  o
  10  4  1  1  333.48  395.52  71.48  o
  10  4  -1  1  346.14  305.11  67.85  o
  10  4  1  2  41.02  84.73  58.36  <
  10  4  -1  2  35.24  71.55  54.59  <
  11  4  1  -2  53.97  -1.88  37.67  <
  11  4  -1  -2  52.61  -11.30  37.66  <
  11  4  1  -1  498.58  429.48  69.82  o
  11  4  -1  -1  550.28  459.64  67.99  o
  11  4  1  0  3847.42  3741.93  164.98  o
  11  4  -1  0  3965.45  4044.55  167.62  o
  11  4  1  1  1381.91  1325.13  115.16  o
  11  4  -1  1  1301.18  1306.19  113.07  o
  11  4  1  2  81.26  71.55  60.26  <
  11  4  -1  2  81.33  114.86  65.89  <
  12  4  1  -2  16.94  43.31  39.54  <
  12  4  -1  -2  18.58  22.59  41.42  <
  12  4  1  -1  595.08  516.16  81.14  o
  12  4  -1  -1  600.36  412.56  71.92  o
  12  4  1  0  273.39  101.70  52.87  <
  12  4  -1  0  242.48  222.22  67.82  o
  12  4  1  1  127.30  152.53  62.13  <
  12  4  -1  1  135.84  35.78  62.17  <
  12  4  1  2  6.31  43.31  62.13  <
  12  4  -1  2  5.26  41.42  65.90  <
  13  4  1  -2  1.45  -20.71  45.19  <
  13  4  -1  -2  1.55  43.31  45.18  <
  13  4  1  -1  1052.49  936.57  103.93  o
  13  4  -1  -1  1079.65  1106.20  107.34  o
  13  4  1  0  2713.65  2626.43  153.24  o
  13  4  -1  0  2714.77  2277.37  149.08  o
  13  4  1  1  956.94  751.81  105.94  o
  13  4  -1  1  943.59  970.37  120.53  o
  13  4  1  2  62.46  35.78  69.67  <
  13  4  -1  2  66.21  69.67  67.79  <
  14  4  1  -2  13.47  3.77  50.84  <
  14  4  -1  -2  16.44  43.31  47.07  <
  14  4  1  -1  1290.95  1264.66  122.58  o
  14  4  -1  -1  1286.01  1240.15  113.22  o
  14  4  1  0  331.50  237.30  71.66  o
  14  4  -1  0  382.74  220.36  77.37  <
  14  4  1  1  165.11  180.78  79.08  <
  14  4  -1  1  157.17  69.67  69.71  <
  15  4  1  -2  6.48  -18.83  64.02  <
  15  4  -1  -2  6.03  -60.25  50.82  <
  15  4  1  -1  462.68  485.95  101.68  o
  15  4  -1  -1  458.52  382.36  92.38  o
  15  4  1  0  1397.48  1125.21  125.10  o
  15  4  -1  0  1093.42  1362.40  144.47  o
  16  4  1  -2  3.56  71.55  75.30  <
  16  4  -1  -2  3.46  -7.53  73.43  <
  16  4  1  -1  375.60  237.31  86.76  <
  16  4  -1  -1  373.42  410.58  118.62  o
  1  5  1  -2  17.53  39.54  26.35  <
  1  5  -1  -2  13.30  88.50  30.08  <
  1  5  1  -1  1873.10  1875.26  73.56  o
  1  5  -1  -1  1825.66  1912.90  82.48  o
  1  5  1  0  1236.32  1302.62  75.10  o
  1  5  -1  0  1292.63  1138.68  91.03  o
  1  5  1  1  1328.58  1477.93  82.26  o
  1  5  -1  1  1341.08  1278.12  88.85  o
  1  5  1  2  305.29  365.37  82.80  o
  1  5  -1  2  310.28  348.42  62.10  o
  2  5  1  -2  14.51  7.53  24.48  <
  2  5  -1  -2  13.29  39.54  30.12  <
  2  5  1  -1  3365.37  3418.01  116.74  o
  2  5  -1  -1  3283.61  3523.53  111.40  o
  2  5  1  0  405.35  380.49  54.67  o
  2  5  -1  0  372.85  342.81  62.20  o
  2  5  1  1  38.39  77.20  41.41  <
  2  5  -1  1  36.81  50.84  47.07  <
  2  5  1  2  50.08  84.73  50.83  <
  2  5  -1  2  57.33  -3.77  52.73  <
  3  5  1  -2  24.87  9.41  26.36  <
  3  5  -1  -2  26.46  30.13  30.13  <
  3  5  1  -1  1087.96  1070.66  69.82  o
  3  5  -1  -1  1123.24  1221.51  80.67  o
  3  5  1  0  8042.72  8208.70  189.71  o
  3  5  -1  0  8126.42  7809.02  247.46  o
  3  5  1  1  1824.58  1957.55  122.03  o
  3  5  -1  1  1862.75  1731.30  113.71  o
  3  5  1  2  219.80  261.77  63.99  o
  3  5  -1  2  226.41  325.80  67.68  o
  4  5  1  -2  16.61  -7.53  26.36  <
  4  5  -1  -2  17.72  -13.18  26.36  <
  4  5  1  -1  94.87  139.35  41.39  o
  4  5  -1  -1  75.42  45.19  37.67  <
  4  5  1  0  48.67  62.14  39.54  <
  4  5  -1  0  72.16  28.25  39.56  <
  4  5  1  1  21.05  -3.77  50.84  <
  4  5  -1  1  24.80  -3.77  37.66  <
  4  5  1  2  4.71  0.00  45.19  <
  4  5  -1  2  5.09  -24.48  43.30  <
  5  5  1  -2  7.91  -9.41  28.24  <
  5  5  -1  -2  6.58  9.41  30.13  <
  5  5  1  -1  2495.23  2612.19  104.93  o
  5  5  -1  -1  2582.20  2669.04  114.61  o
  5  5  1  0  8689.01  8985.01  216.91  o
  5  5  -1  0  8657.40  8950.60  236.18  o
  5  5  1  1  1074.72  1108.14  120.53  o
  5  5  -1  1  1113.77  1300.41  104.96  o
  5  5  1  2  248.63  218.46  77.24  <
  5  5  -1  2  239.59  274.95  62.11  o
  6  5  1  -2  40.08  20.71  30.13  <
  6  5  -1  -2  40.48  -26.36  30.12  <
  6  5  1  -1  3564.89  3474.17  125.36  o
  6  5  -1  -1  3451.44  3632.47  136.64  o
  6  5  1  0  224.68  280.61  63.97  o
  6  5  -1  0  167.02  295.66  60.12  o
  6  5  1  1  35.58  -33.89  50.84  <
  6  5  -1  1  25.50  -39.54  41.42  <
  6  5  1  2  68.86  77.20  64.02  <
  6  5  -1  2  82.61  9.42  50.85  <
  7  5  1  -2  21.00  -1.88  33.89  <
  7  5  -1  -2  24.89  -33.89  32.00  <
  7  5  1  -1  933.71  1044.00  86.34  o
  7  5  -1  -1  902.26  1179.65  97.17  o
  7  5  1  0  1583.57  1864.68  119.56  o
  7  5  -1  0  1527.91  1653.43  108.86  o
  7  5  1  1  1810.17  1619.75  121.39  o
  7  5  -1  1  1798.11  1664.99  113.67  o
  7  5  1  2  224.53  154.42  75.37  <
  7  5  -1  2  217.89  212.80  69.68  o
  8  5  1  -2  1.70  -28.24  35.77  <
  8  5  -1  -2  1.55  -48.96  33.88  <
  8  5  1  -1  165.23  152.54  52.74  <
  8  5  -1  -1  173.84  218.45  52.68  o
  8  5  1  0  1645.03  1811.90  121.91  o
  8  5  -1  0  1595.27  1915.52  119.38  o
  8  5  1  1  131.72  5.65  56.52  <
  8  5  -1  1  123.11  45.19  58.40  <
  8  5  1  2  0.33  -77.20  60.23  <
  8  5  -1  2  0.75  -9.41  56.49  <
  9  5  1  -2  66.28  -13.18  41.43  <
  9  5  -1  -2  62.64  60.26  47.08  <
  9  5  1  -1  1398.27  1427.01  105.46  o
  9  5  -1  -1  1426.47  1261.16  102.37  o
  9  5  1  0  1658.01  1764.71  127.82  o
  9  5  -1  0  1619.67  1559.16  118.99  o
  9  5  1  1  1450.00  1530.60  129.81  o
  9  5  -1  1  1377.36  1230.82  128.56  o
  9  5  1  2  236.42  188.32  90.42  <
  9  5  -1  2  245.66  291.90  80.94  o
  10  5  1  -2  17.92  39.54  47.07  <
  10  5  -1  -2  19.24  33.89  43.30  <
  10  5  1  -1  1527.70  1653.33  114.53  o
  10  5  -1  -1  1501.44  1368.63  117.31  o
  10  5  1  0  554.66  566.99  92.28  o
  10  5  -1  0  509.02  435.12  84.87  o
  10  5  1  1  3.61  16.95  56.49  <
  10  5  -1  1  1.76  1.88  58.37  <
  10  5  1  2  28.24  84.73  80.95  <
  10  5  -1  2  32.87  18.83  67.79  <
  11  5  1  -2  5.60  -18.83  48.95  <
  11  5  -1  -2  5.03  -9.41  45.19  <
  11  5  1  -1  1149.00  1066.67  117.05  o
  11  5  -1  -1  1180.87  1008.27  115.39  o
  11  5  1  0  2699.91  2598.00  162.70  o
  11  5  -1  0  2799.01  2652.91  164.80  o
  11  5  1  1  648.58  446.45  98.24  o
  11  5  -1  1  653.95  455.88  96.36  o
  11  5  1  2  185.38  -64.03  120.53  <
  11  5  -1  2  183.23  112.99  152.55  <
  12  5  1  -2  13.60  15.06  48.96  <
  12  5  -1  -2  13.55  22.59  54.60  <
  12  5  1  -1  353.20  299.46  82.92  o
  12  5  -1  -1  357.75  222.24  75.46  <
  12  5  1  0  647.68  602.81  103.68  o
  12  5  -1  0  676.38  700.78  112.99  o
  12  5  1  1  294.99  242.94  88.56  <
  12  5  -1  1  295.11  274.96  88.53  o
  13  5  1  -2  29.49  -3.77  56.49  <
  13  5  -1  -2  26.35  -54.60  56.48  <
  13  5  1  -1  1907.96  2287.14  153.19  o
  13  5  -1  -1  1886.32  1813.84  152.96  o
  13  5  1  0  3940.94  3451.63  230.53  o
  13  5  -1  0  3828.46  3721.35  206.32  o
  14  5  1  -2  11.53  -28.24  58.37  <
  14  5  -1  -2  13.55  0.00  64.02  <
  14  5  1  -1  853.83  923.18  126.10  o
  14  5  -1  -1  834.55  923.17  126.06  o
  15  5  1  -2  56.33  -32.01  64.02  <
  15  5  -1  -2  55.70  13.18  73.44  <
  1  6  1  -2  38.08  30.13  35.78  <
  1  6  -1  -2  43.17  26.36  43.31  <
  1  6  1  -1  3154.24  2922.56  157.88  o
  1  6  -1  -1  3141.63  3171.74  128.18  o
  1  6  1  0  2431.54  2475.17  158.29  o
  1  6  -1  0  2456.50  2524.27  129.83  o
  1  6  1  1  1305.72  1255.25  126.42  o
  1  6  -1  1  1299.80  1336.29  175.21  o
  1  6  1  2  116.34  80.97  75.33  <
  1  6  -1  2  119.45  144.99  128.04  <
  2  6  1  -2  12.68  48.96  37.65  <
  2  6  -1  -2  13.76  7.53  43.31  <
  2  6  1  -1  1383.71  1689.05  98.61  o
  2  6  -1  -1  1449.08  1415.79  115.11  o
  2  6  1  0  221.67  186.44  92.30  <
  2  6  -1  0  238.71  346.52  86.53  o
  2  6  1  1  574.64  376.74  156.50  <
  2  6  -1  1  568.94  536.85  109.30  o
  2  6  1  2  77.06  -22.60  156.29  <
  2  6  -1  2  71.00  69.67  128.04  <
  3  6  1  -2  9.27  43.31  43.30  <
  3  6  -1  -2  8.72  37.66  45.18  <
  3  6  1  -1  2565.30  2939.85  131.86  o
  3  6  -1  -1  2588.69  2377.59  118.17  o
  3  6  1  0  1010.63  981.77  128.20  o
  3  6  -1  0  908.21  1090.98  122.07  o
  3  6  1  1  971.17  806.47  150.99  o
  3  6  -1  1  953.96  1254.91  178.49  o
  3  6  1  2  182.07  129.94  184.56  <
  3  6  -1  2  190.44  135.59  103.60  <
  4  6  1  -2  13.14  -5.65  37.66  <
  4  6  -1  -2  16.08  -30.13  33.89  <
  4  6  1  -1  57.52  -13.18  54.61  <
  4  6  -1  -1  62.55  90.38  47.06  <
  4  6  1  0  84.55  69.67  54.61  <
  4  6  -1  0  67.27  141.22  67.75  <
  4  6  1  1  109.60  35.78  67.81  <
  4  6  -1  1  120.91  118.63  88.50  <
  4  6  1  2  4.26  -13.18  92.26  <
  4  6  -1  2  3.64  -79.08  71.53  <
  5  6  1  -2  26.55  -35.78  41.42  <
  5  6  -1  -2  29.01  -20.71  37.66  <
  5  6  1  -1  2346.55  2097.77  150.00  o
  5  6  -1  -1  2328.67  2550.48  125.23  o
  5  6  1  0  378.59  359.74  90.43  o
  5  6  -1  0  487.66  414.39  96.15  o
  5  6  1  1  872.93  821.47  109.38  o
  5  6  -1  1  861.10  717.84  145.28  o
  5  6  1  2  115.91  193.95  94.11  <
  5  6  -1  2  118.27  60.26  97.93  <
  6  6  1  -2  9.17  5.65  47.07  <
  6  6  -1  -2  8.39  -52.72  39.53  <
  6  6  1  -1  1110.65  1185.38  137.40  o
  6  6  -1  -1  1158.02  1030.89  102.13  o
  6  6  1  0  580.75  418.19  100.04  o
  6  6  -1  0  598.51  474.70  98.13  o
  6  6  1  1  251.01  192.09  75.37  <
  6  6  -1  1  254.24  109.23  81.05  <
  7  6  1  -2  20.90  56.49  48.95  <
  7  6  -1  -2  22.30  28.24  48.96  <
  7  6  1  -1  2303.57  2410.66  167.47  o
  7  6  -1  -1  2272.59  2097.48  132.80  o
  7  6  1  0  408.20  621.54  118.39  o
  7  6  -1  0  498.30  550.01  109.18  o
  7  6  1  1  1018.80  1066.50  146.88  o
  7  6  -1  1  977.58  727.31  128.55  o
  8  6  1  -2  65.91  -39.54  47.07  <
  8  6  -1  -2  60.46  11.30  47.08  <
  8  6  1  -1  27.27  128.04  75.28  <
  8  6  -1  -1  32.79  48.96  56.48  <
  8  6  1  0  741.27  811.97  129.88  o
  8  6  -1  0  782.04  580.26  100.20  o
  8  6  1  1  127.52  -7.53  77.22  <
  8  6  -1  1  102.22  58.37  82.86  <
  9  6  1  -2  68.27  -15.06  50.85  <
  9  6  -1  -2  70.33  -7.53  54.61  <
  9  6  1  -1  1924.94  1902.57  162.23  o
  9  6  -1  -1  2018.23  2046.01  141.32  o
  9  6  1  0  1731.27  1457.29  172.22  o
  9  6  -1  0  1594.58  1681.47  148.66  o
  10  6  1  -2  16.59  15.06  52.72  <
  10  6  -1  -2  18.68  32.01  56.49  <
  10  6  1  -1  487.40  482.19  118.67  o
  10  6  -1  -1  502.19  619.70  103.42  o
  10  6  1  0  130.25  152.53  90.38  <
  10  6  -1  0  78.90  150.64  77.17  <
  11  6  1  -2  31.07  -1.88  60.26  <
  11  6  -1  -2  25.62  67.79  64.01  <
  11  6  1  -1  1117.58  1134.41  152.60  o
  11  6  -1  -1  1127.86  1128.76  137.56  o
  12  6  1  -2  19.13  -47.07  62.13  <
  12  6  -1  -2  19.02  73.43  69.66  <
  1  7  1  -2  41.18  3.77  52.73  <
  1  7  -1  -2  41.17  71.55  60.25  <
  1  7  1  -1  1743.73  1832.54  169.43  o
  1  7  -1  -1  1698.06  1777.80  261.91  o
  1  7  1  0  93.09  0.00  92.28  <
  1  7  -1  0  50.07  33.89  133.69  <
  2  7  1  -2  45.07  120.51  148.74  <
  2  7  -1  -2  37.46  90.38  67.77  <
  2  7  1  -1  607.17  510.49  133.85  o
  2  7  -1  -1  561.87  793.03  154.18  o
  2  7  1  0  799.64  729.09  162.11  o
  2  7  -1  0  760.09  1260.34  266.97  o
  3  7  1  -2  104.20  -48.96  64.02  <
  3  7  -1  -2  108.17  5.65  64.04  <
  3  7  1  -1  1586.38  1707.89  214.65  o
  3  7  -1  -1  1590.04  1596.67  186.61  o
  3  7  1  0  1037.98  895.03  175.44  o
  3  7  -1  0  1119.96  1083.52  250.67  o
  4  7  1  -2  27.81  30.13  54.60  <
  4  7  -1  -2  27.88  -41.42  64.01  <
  4  7  1  -1  72.96  158.17  99.77  <
  4  7  -1  -1  84.28  205.25  111.05  <
  5  7  1  -2  66.92  28.24  56.50  <
  5  7  -1  -2  71.43  54.61  82.85  <
  5  7  1  -1  1747.87  1898.47  174.91  o
  5  7  -1  -1  1798.48  1700.58  198.19  o
  6  7  1  -2  37.79  94.15  69.65  <
  6  7  -1  -2  26.76  152.52  73.38  <
  6  7  1  -1  554.45  546.26  99.84  o
  6  7  -1  -1  461.96  508.55  137.45  o
  7  7  1  -2  22.74  28.24  73.43  <
  7  7  -1  -2  23.59  0.00  71.55  <
  7  7  1  -1  997.32  821.52  171.71  o
  7  7  -1  -1  1014.29  1202.15  271.12  o
  8  7  1  -2  13.55  54.60  80.96  <
  8  7  -1  -2  13.07  -69.67  65.89  <
  9  7  1  -2  105.81  -3.77  82.86  <
  9  7  -1  -2  95.75  -20.71  75.33  <
  0  0  2  0  4668.50  3545.95  164.54  o
  0  0  -2  0  4669.21  3813.30  159.30  o
  0  0  2  1  318.68  283.13  22.77  o
  0  0  -2  1  323.13  324.67  20.76  o
  0  0  2  2  4.59  -1.88  11.30  <
  0  0  -2  2  3.88  7.53  13.18  <
  1  0  2  1  79.56  71.59  13.20  o
  1  0  -2  1  83.81  71.59  9.45  o
  1  0  2  2  4.51  -7.53  9.41  <
  1  0  -2  2  4.42  0.00  9.41  <
  2  0  2  0  1998.44  2376.23  50.95  o
  2  0  -2  0  2004.00  2300.14  49.95  o
  2  0  2  1  0.56  -3.77  7.53  <
  2  0  -2  1  0.36  -5.65  7.53  <
  2  0  2  2  3.87  1.88  11.30  <
  2  0  -2  2  3.89  -1.88  9.41  <
  3  0  2  1  24.68  33.90  13.18  <
  3  0  -2  1  28.08  32.01  13.18  <
  3  0  2  2  0.98  -1.88  11.30  <
  3  0  -2  2  1.05  16.95  15.06  <
  4  0  2  0  2566.13  2730.19  68.56  o
  4  0  -2  0  2570.20  2694.15  70.92  o
  4  0  2  1  255.44  286.43  24.40  o
  4  0  -2  1  254.70  284.55  18.73  o
  4  0  2  2  5.75  -9.41  11.30  <
  4  0  -2  2  4.54  -7.53  13.18  <
  5  0  2  1  126.31  109.24  20.74  o
  5  0  -2  1  112.96  103.59  15.09  o
  5  0  2  2  16.26  18.83  15.06  <
  5  0  -2  2  16.65  7.53  11.30  <
  6  0  2  0  94.81  69.68  22.62  o
  6  0  -2  0  120.16  105.47  24.50  o
  6  0  2  1  1298.58  1380.28  36.98  o
  6  0  -2  1  1274.18  1314.12  37.39  o
  6  0  2  2  14.05  1.88  15.06  <
  6  0  -2  2  13.67  1.88  13.18  <
  7  0  2  1  357.85  327.84  24.60  o
  7  0  -2  1  350.36  333.49  26.44  o
  7  0  2  2  2.12  7.53  18.83  <
  7  0  -2  2  1.99  1.88  13.18  <
  8  0  2  0  859.47  925.80  54.39  o
  8  0  -2  0  874.20  916.40  54.50  o
  8  0  2  1  435.56  488.01  31.83  o
  8  0  -2  1  448.63  446.57  32.04  o
  8  0  2  2  16.48  9.41  18.83  <
  8  0  -2  2  17.13  20.71  16.95  <
  9  0  2  1  455.75  535.09  46.87  o
  9  0  -2  1  462.51  461.61  33.92  o
  9  0  2  2  17.11  -26.36  20.71  <
  9  0  -2  2  16.27  -30.13  15.05  <
  10  0  2  0  20927.10  20424.10  508.24  o
  10  0  -2  0  20962.30  20614.60  389.80  o
  10  0  2  1  17.79  58.37  28.23  <
  10  0  -2  1  23.14  26.36  24.48  <
  10  0  2  2  25.50  -3.77  22.60  <
  10  0  -2  2  26.57  -11.30  24.48  <
  11  0  2  1  37.31  67.79  37.65  <
  11  0  -2  1  38.39  41.43  30.13  <
  11  0  2  2  4.43  -11.30  26.36  <
  11  0  -2  2  4.05  11.30  32.01  <
  12  0  2  0  1568.85  1699.30  131.58  o
  12  0  -2  0  1571.30  1588.03  130.08  o
  12  0  2  1  2221.43  2215.68  103.83  o
  12  0  -2  1  2253.96  2266.72  113.17  o
  12  0  2  2  28.81  -13.18  35.78  <
  12  0  -2  2  30.16  -11.30  37.66  <
  13  0  2  1  160.34  154.42  54.62  <
  13  0  -2  1  150.91  195.85  54.57  o
  13  0  2  2  3.05  -18.83  37.66  <
  13  0  -2  2  4.05  45.19  41.42  <
  14  0  2  0  9984.22  11090.90  439.30  o
  14  0  -2  0  10072.90  10991.10  444.43  o
  14  0  2  1  101.54  128.05  54.59  <
  14  0  -2  1  96.79  -1.88  48.98  <
  14  0  2  2  83.16  9.42  45.21  <
  14  0  -2  2  80.08  -18.83  41.44  <
  15  0  2  1  351.70  322.07  77.26  o
  15  0  -2  1  363.36  235.43  71.70  o
  15  0  2  2  2.40  20.71  50.84  <
  15  0  -2  2  2.30  -24.48  48.95  <
  16  0  2  0  731.52  282.60  119.13  <
  16  0  -2  0  760.73  649.99  150.86  o
  16  0  2  1  881.92  895.00  118.68  o
  16  0  -2  1  852.38  974.11  122.22  o
  16  0  2  2  4.79  5.65  56.49  <
  16  0  -2  2  4.19  -1.88  58.37  <
  17  0  2  1  181.59  109.22  79.12  <
  17  0  -2  1  178.65  295.65  90.30  o
  17  0  2  2  22.17  -71.55  54.59  <
  17  0  -2  2  22.07  -94.15  58.34  <
  18  0  2  0  11337.80  12614.70  554.48  o
  18  0  -2  0  11358.60  12643.40  556.35  o
  18  0  2  1  35.70  -20.71  67.79  <
  18  0  -2  1  33.05  15.06  75.32  <
  18  0  2  2  22.21  143.10  82.81  <
  18  0  -2  2  23.95  -11.30  79.08  <
  0  1  2  -2  5.87  7.53  11.30  <
  0  1  -2  -2  6.21  9.41  9.41  <
  0  1  2  -1  170.80  152.68  20.77  o
  0  1  -2  -1  170.66  120.64  17.07  o
  0  1  2  0  56578.40  64105.50  1022.11  o
  0  1  -2  0  56642.50  62690.90  1036.97  o
  0  1  2  1  54.81  90.40  22.57  o
  0  1  -2  1  63.14  86.63  20.69  o
  0  1  2  2  326.88  265.73  34.06  o
  0  1  -2  2  340.12  156.43  28.65  o
  1  1  2  -2  0.67  -1.88  7.53  <
  1  1  -2  -2  0.70  9.41  7.53  <
  1  1  2  -1  6.14  18.83  9.41  <
  1  1  -2  -1  6.33  0.00  7.53  <
  1  1  2  0  193.03  186.56  15.10  o
  1  1  -2  0  197.20  186.57  16.99  o
  1  1  2  1  338.29  331.77  20.76  o
  1  1  -2  1  331.06  395.85  22.33  o
  1  1  2  2  68.43  22.60  13.22  <
  1  1  -2  2  65.21  43.31  15.09  <
  2  1  2  -2  2.37  7.53  7.53  <
  2  1  -2  -2  2.48  3.77  7.53  <
  2  1  2  -1  30.60  47.08  11.28  o
  2  1  -2  -1  31.34  18.83  11.31  <
  2  1  2  0  23959.40  25112.00  282.90  o
  2  1  -2  0  23987.90  24795.60  304.08  o
  2  1  2  1  86.26  103.59  16.92  o
  2  1  -2  1  87.09  97.94  16.93  o
  2  1  2  2  19.14  -7.53  11.30  <
  2  1  -2  2  19.74  -7.53  13.18  <
  3  1  2  -2  16.75  -3.77  11.30  <
  3  1  -2  -2  16.69  7.53  9.42  <
  3  1  2  -1  15.64  -3.77  13.18  <
  3  1  -2  -1  13.45  7.53  13.18  <
  3  1  2  0  1207.09  1308.08  38.82  o
  3  1  -2  0  1132.48  1203.83  39.12  o
  3  1  2  1  206.92  194.05  22.64  o
  3  1  -2  1  186.60  222.30  20.63  o
  3  1  2  2  19.49  16.95  15.06  <
  3  1  -2  2  20.47  -1.88  13.18  <
  4  1  2  -2  9.75  -15.06  13.18  <
  4  1  -2  -2  9.19  11.30  9.41  <
  4  1  2  -1  44.41  58.38  16.94  o
  4  1  -2  -1  45.38  48.96  13.18  o
  4  1  2  0  177664.00  187276.00  2368.76  o
  4  1  -2  0  177712.00  191756.00  2257.64  o
  4  1  2  1  574.68  588.29  31.99  o
  4  1  -2  1  581.52  675.03  33.46  o
  4  1  2  2  148.23  128.08  20.75  o
  4  1  -2  2  150.40  107.36  18.91  o
  5  1  2  -2  4.86  -1.88  11.30  <
  5  1  -2  -2  5.50  -9.41  11.30  <
  5  1  2  -1  85.43  62.15  16.98  o
  5  1  -2  -1  88.76  69.68  15.09  o
  5  1  2  0  360.86  410.82  29.98  o
  5  1  -2  0  384.47  412.72  24.38  o
  5  1  2  1  87.52  48.96  18.87  <
  5  1  -2  1  89.82  60.26  18.86  o
  5  1  2  2  60.09  26.36  18.85  <
  5  1  -2  2  56.05  32.01  16.96  <
  6  1  2  -2  11.77  0.00  11.30  <
  6  1  -2  -2  12.87  -1.88  11.30  <
  6  1  2  -1  2680.37  2899.17  63.74  o
  6  1  -2  -1  2686.07  2639.77  51.77  o
  6  1  2  0  25208.50  25825.40  335.98  o
  6  1  -2  0  25178.40  25343.10  293.06  o
  6  1  2  1  122.44  120.53  22.60  o
  6  1  -2  1  122.73  158.20  24.43  o
  6  1  2  2  42.41  28.25  18.84  <
  6  1  -2  2  44.10  35.78  18.83  <
  7  1  2  -2  0.85  5.65  13.18  <
  7  1  -2  -2  1.08  -20.71  13.17  <
  7  1  2  -1  42.23  26.36  18.84  <
  7  1  -2  -1  31.28  47.07  15.05  o
  7  1  2  0  27.19  7.53  16.95  <
  7  1  -2  0  15.96  20.71  13.18  <
  7  1  2  1  315.65  335.33  35.75  o
  7  1  -2  1  309.17  339.09  26.27  o
  7  1  2  2  3.18  3.77  20.71  <
  7  1  -2  2  2.82  33.89  20.70  <
  8  1  2  -2  12.08  20.71  15.06  <
  8  1  -2  -2  11.20  -3.77  15.06  <
  8  1  2  -1  409.54  390.01  37.74  o
  8  1  -2  -1  417.52  420.17  26.37  o
  8  1  2  0  80101.30  78681.90  992.22  o
  8  1  -2  0  79783.30  79072.70  860.22  o
  8  1  2  1  1012.06  869.31  49.74  o
  8  1  -2  1  1014.37  1008.86  41.52  o
  8  1  2  2  96.24  103.57  30.12  o
  8  1  -2  2  101.61  77.21  28.27  <
  9  1  2  -2  35.86  -5.65  16.95  <
  9  1  -2  -2  34.23  1.88  16.95  <
  9  1  2  -1  217.89  233.55  33.87  o
  9  1  -2  -1  205.76  248.61  28.16  o
  9  1  2  0  40.89  20.71  24.48  <
  9  1  -2  0  24.16  41.42  24.47  <
  9  1  2  1  57.12  45.19  26.37  <
  9  1  -2  1  75.61  75.32  32.01  <
  9  1  2  2  28.86  18.83  28.25  <
  9  1  -2  2  21.56  39.54  30.12  <
  10  1  2  -2  22.59  -18.83  22.59  <
  10  1  -2  -2  24.44  -3.77  20.71  <
  10  1  2  -1  503.71  602.91  48.68  o
  10  1  -2  -1  528.09  546.40  48.93  o
  10  1  2  0  5696.04  6102.06  137.60  o
  10  1  -2  0  5723.49  5548.55  155.29  o
  10  1  2  1  402.73  295.76  45.42  o
  10  1  -2  1  417.79  418.21  52.75  o
  10  1  2  2  19.77  24.48  32.01  <
  10  1  -2  2  22.09  1.88  32.01  <
  11  1  2  -2  49.35  16.95  33.90  <
  11  1  -2  -2  43.94  -3.77  32.02  <
  11  1  2  -1  184.69  259.89  46.98  o
  11  1  -2  -1  170.24  246.71  46.99  o
  11  1  2  0  337.38  401.21  54.51  o
  11  1  -2  0  379.39  293.86  49.13  o
  11  1  2  1  112.43  137.47  41.41  o
  11  1  -2  1  101.13  111.10  39.54  <
  11  1  2  2  23.14  28.24  32.01  <
  11  1  -2  2  27.14  -18.83  30.13  <
  12  1  2  -2  33.45  33.89  35.78  <
  12  1  -2  -2  33.38  -11.30  37.66  <
  12  1  2  -1  737.20  812.15  84.61  o
  12  1  -2  -1  710.20  898.80  88.09  o
  12  1  2  0  23674.50  23853.60  460.45  o
  12  1  -2  0  23728.80  24495.30  414.51  o
  12  1  2  1  2397.19  2297.01  106.28  o
  12  1  -2  1  2379.23  2289.42  104.34  o
  12  1  2  2  146.01  41.43  37.72  <
  12  1  -2  2  146.02  56.49  39.60  <
  13  1  2  -2  1.68  -28.24  35.77  <
  13  1  -2  -2  2.66  -18.83  37.66  <
  13  1  2  -1  535.01  535.02  77.24  o
  13  1  -2  -1  554.19  632.99  78.96  o
  13  1  2  0  293.30  173.27  52.86  o
  13  1  -2  0  279.59  446.36  69.44  o
  13  1  2  1  177.76  88.51  50.90  <
  13  1  -2  1  182.05  203.39  54.59  o
  13  1  2  2  79.88  37.66  43.32  <
  13  1  -2  2  81.93  47.08  41.44  <
  14  1  2  -2  58.03  3.77  47.08  <
  14  1  -2  -2  57.38  24.48  48.96  <
  14  1  2  -1  564.20  523.71  82.96  o
  14  1  -2  -1  552.99  591.52  82.82  o
  14  1  2  0  1896.44  1987.89  124.10  o
  14  1  -2  0  1869.01  2016.13  125.75  o
  14  1  2  1  78.07  48.96  48.97  <
  14  1  -2  1  72.25  60.26  48.96  <
  14  1  2  2  83.89  -3.77  41.44  <
  14  1  -2  2  82.45  -15.06  43.32  <
  15  1  2  -2  50.85  77.20  58.36  <
  15  1  -2  -2  53.54  -5.65  52.73  <
  15  1  2  -1  217.93  165.72  60.31  <
  15  1  -2  -1  224.43  254.24  73.42  o
  15  1  2  0  779.10  746.10  99.92  o
  15  1  -2  0  739.14  785.65  107.30  o
  15  1  2  1  4.30  -58.37  45.18  <
  15  1  -2  1  4.48  -9.41  52.72  <
  15  1  2  2  28.83  56.49  54.60  <
  15  1  -2  2  28.91  -28.24  47.07  <
  16  1  2  -2  20.27  -32.01  52.72  <
  16  1  -2  -2  19.33  9.41  58.37  <
  16  1  2  -1  335.02  254.26  77.30  o
  16  1  -2  -1  356.85  310.76  82.92  o
  16  1  2  0  16201.80  16520.20  429.60  o
  16  1  -2  0  16145.50  15726.30  435.01  o
  16  1  2  1  449.20  461.47  90.39  o
  16  1  -2  1  466.02  529.28  99.74  o
  16  1  2  2  15.01  20.71  56.49  <
  16  1  -2  2  16.86  20.71  60.25  <
  17  1  2  -2  34.80  -16.95  62.14  <
  17  1  -2  -2  33.29  -5.65  62.14  <
  17  1  2  -1  610.62  493.54  101.89  o
  17  1  -2  -1  602.18  614.10  109.24  o
  17  1  2  0  65.03  161.94  77.16  <
  17  1  -2  0  77.31  118.63  73.42  <
  17  1  2  1  27.97  45.19  67.78  <
  17  1  -2  1  22.58  -50.84  65.89  <
  17  1  2  2  46.08  39.54  67.79  <
  17  1  -2  2  39.94  -28.24  69.67  <
  18  1  2  -2  59.74  7.53  69.67  <
  18  1  -2  -2  70.05  -43.31  65.90  <
  18  1  2  -1  740.53  764.86  124.30  o
  18  1  -2  -1  760.76  778.06  126.19  o
  18  1  2  0  2798.17  3069.65  198.91  o
  18  1  -2  0  2794.49  3160.20  200.40  o
  18  1  2  1  157.16  254.22  109.17  <
  18  1  -2  1  159.03  216.56  97.89  <
  18  1  2  2  74.97  -88.50  80.95  <
  18  1  -2  2  88.55  69.67  84.74  <
  0  2  2  -2  17.58  18.83  16.95  <
  0  2  -2  -2  18.33  16.95  16.95  <
  0  2  2  -1  3053.44  2881.31  74.07  o
  0  2  -2  -1  3070.75  2837.74  74.69  o
  0  2  2  0  1622.07  1416.03  65.54  o
  0  2  -2  0  1662.10  1489.91  67.24  o
  0  2  2  1  1280.56  1366.89  63.71  o
  0  2  -2  1  1411.95  1304.95  62.93  o
  0  2  2  2  83.89  50.85  26.39  <
  0  2  -2  2  76.58  15.07  22.62  <
  1  2  2  -2  1.09  -3.77  9.41  <
  1  2  -2  -2  1.24  1.88  11.30  <
  1  2  2  -1  146.80  128.09  18.87  o
  1  2  -2  -1  133.44  118.67  18.86  o
  1  2  2  0  6343.68  6045.10  113.41  o
  1  2  -2  0  6669.82  6120.72  119.03  o
  1  2  2  1  214.96  180.84  24.56  o
  1  2  -2  1  214.65  171.42  24.58  o
  1  2  2  2  134.89  152.55  24.46  o
  1  2  -2  2  134.00  97.93  20.77  o
  2  2  2  -2  12.32  -3.77  11.30  <
  2  2  -2  -2  12.52  3.77  11.30  <
  2  2  2  -1  26.05  41.43  13.17  o
  2  2  -2  -1  24.20  5.65  11.30  <
  2  2  2  0  213.91  288.23  22.37  o
  2  2  -2  0  213.42  267.50  24.34  o
  2  2  2  1  2.09  1.88  13.18  <
  2  2  -2  1  1.82  -3.77  16.95  <
  2  2  2  2  1.55  11.30  15.06  <
  2  2  -2  2  1.56  -22.59  15.06  <
  3  2  2  -2  3.45  -7.53  13.18  <
  3  2  -2  -2  3.27  -18.83  11.29  <
  3  2  2  -1  608.50  543.11  28.63  o
  3  2  -2  -1  597.11  607.21  30.12  o
  3  2  2  0  17107.60  17594.60  214.33  o
  3  2  -2  0  17343.30  17196.80  254.78  o
  3  2  2  1  114.18  116.76  18.83  o
  3  2  -2  1  119.95  105.47  22.62  o
  3  2  2  2  48.86  62.14  20.70  <
  3  2  -2  2  56.12  37.66  20.72  <
  4  2  2  -2  8.88  26.36  15.06  <
  4  2  -2  -2  7.77  -7.53  13.18  <
  4  2  2  -1  961.96  871.79  38.31  o
  4  2  -2  -1  922.20  922.66  35.85  o
  4  2  2  0  7076.83  7185.69  130.18  o
  4  2  -2  0  6968.32  7565.99  116.31  o
  4  2  2  1  3010.63  3244.46  71.10  o
  4  2  -2  1  2963.58  3141.98  65.95  o
  4  2  2  2  29.82  20.71  20.72  <
  4  2  -2  2  24.02  1.88  15.07  <
  5  2  2  -2  15.82  18.83  15.06  <
  5  2  -2  -2  16.49  3.77  15.07  <
  5  2  2  -1  563.11  712.54  38.91  o
  5  2  -2  -1  585.41  565.53  37.78  o
  5  2  2  0  6505.95  6237.47  125.59  o
  5  2  -2  0  6343.89  6365.16  115.87  o
  5  2  2  1  79.17  28.25  20.74  <
  5  2  -2  1  58.04  65.91  20.71  o
  5  2  2  2  124.77  82.86  24.53  o
  5  2  -2  2  131.43  80.98  22.66  o
  6  2  2  -2  4.48  0.00  18.83  <
  6  2  -2  -2  4.55  5.65  13.18  <
  6  2  2  -1  407.89  395.70  35.84  o
  6  2  -2  -1  389.45  401.33  35.76  o
  6  2  2  0  3547.78  3435.49  90.17  o
  6  2  -2  0  3586.00  3443.28  92.36  o
  6  2  2  1  299.30  286.33  33.94  o
  6  2  -2  1  294.54  269.37  33.96  o
  6  2  2  2  22.08  13.18  26.36  <
  6  2  -2  2  22.13  -5.65  20.71  <
  7  2  2  -2  31.25  -18.83  16.95  <
  7  2  -2  -2  31.43  -13.18  13.18  <
  7  2  2  -1  990.69  1016.49  48.89  o
  7  2  -2  -1  945.15  940.98  47.17  o
  7  2  2  0  7763.56  6765.38  152.02  o
  7  2  -2  0  7037.44  7460.21  140.76  o
  7  2  2  1  138.70  269.30  41.24  o
  7  2  -2  1  164.96  195.87  35.74  o
  7  2  2  2  61.33  -1.88  26.37  <
  7  2  -2  2  64.72  5.65  28.26  <
  8  2  2  -2  8.10  20.71  18.83  <
  8  2  -2  -2  6.95  0.00  16.95  <
  8  2  2  -1  1540.55  1507.76  62.49  o
  8  2  -2  -1  1530.44  1381.30  68.77  o
  8  2  2  0  65.96  67.79  30.13  <
  8  2  -2  0  134.01  -3.77  24.55  <
  8  2  2  1  1594.91  1805.56  81.83  o
  8  2  -2  1  1663.47  1871.76  81.81  o
  8  2  2  2  17.25  15.06  30.13  <
  8  2  -2  2  16.29  43.31  30.12  <
  9  2  2  -2  23.27  1.88  22.60  <
  9  2  -2  -2  20.47  -22.60  24.47  <
  9  2  2  -1  276.35  322.09  41.35  o
  9  2  -2  -1  266.12  252.39  41.46  o
  9  2  2  0  6745.37  6386.71  168.90  o
  9  2  -2  0  6904.98  6598.73  170.35  o
  9  2  2  1  934.14  863.30  69.98  o
  9  2  -2  1  871.28  914.13  69.59  o
  9  2  2  2  82.83  9.42  32.03  <
  9  2  -2  2  79.02  56.49  35.79  <
  10  2  2  -2  12.27  41.42  24.47  <
  10  2  -2  -2  11.86  -33.89  26.35  <
  10  2  2  -1  88.08  103.57  37.65  <
  10  2  -2  -1  110.52  131.82  39.53  o
  10  2  2  0  10532.40  10726.70  233.90  o
  10  2  -2  0  10501.20  10482.50  232.66  o
  10  2  2  1  59.90  45.19  32.02  <
  10  2  -2  1  65.86  50.84  37.67  <
  10  2  2  2  22.12  24.48  35.78  <
  10  2  -2  2  22.31  0.00  32.01  <
  11  2  2  -2  50.90  -7.53  32.02  <
  11  2  -2  -2  49.88  -1.88  32.02  <
  11  2  2  -1  1559.82  1506.96  83.24  o
  11  2  -2  -1  1551.40  1623.88  86.40  o
  11  2  2  0  6280.87  6515.62  177.79  o
  11  2  -2  0  6598.69  6309.22  182.83  o
  11  2  2  1  239.59  233.53  50.86  o
  11  2  -2  1  232.65  214.70  48.99  o
  11  2  2  2  65.65  3.77  33.91  <
  11  2  -2  2  69.84  11.30  35.79  <
  12  2  2  -2  45.14  -30.13  37.66  <
  12  2  -2  -2  49.58  1.88  33.90  <
  12  2  2  -1  14.09  9.41  35.78  <
  12  2  -2  -1  4.78  -9.41  33.89  <
  12  2  2  0  1580.28  1585.92  94.26  o
  12  2  -2  0  1556.65  1676.40  97.52  o
  12  2  2  1  2520.38  2598.81  114.66  o
  12  2  -2  1  2567.25  2774.45  119.55  o
  12  2  2  2  24.27  28.24  39.54  <
  12  2  -2  2  24.93  3.77  39.54  <
  13  2  2  -2  17.08  -13.18  37.66  <
  13  2  -2  -2  21.29  -3.77  37.66  <
  13  2  2  -1  534.89  533.12  75.36  o
  13  2  -2  -1  602.57  501.13  69.91  o
  13  2  2  0  1910.71  1872.91  115.22  o
  13  2  -2  0  1867.47  1918.11  107.26  o
  13  2  2  1  212.81  237.29  56.47  o
  13  2  -2  1  238.90  242.94  56.49  o
  13  2  2  2  16.16  9.41  43.31  <
  13  2  -2  2  17.94  13.18  41.42  <
  14  2  2  -2  21.87  -35.78  39.53  <
  14  2  -2  -2  22.54  -32.01  43.30  <
  14  2  2  -1  110.35  129.93  54.60  <
  14  2  -2  -1  104.15  24.48  50.86  <
  14  2  2  0  7219.03  7545.13  239.79  o
  14  2  -2  0  7264.80  7471.54  236.98  o
  14  2  2  1  71.35  48.96  50.85  <
  14  2  -2  1  68.76  60.26  50.84  <
  14  2  2  2  70.17  -16.95  50.85  <
  14  2  -2  2  66.55  7.53  47.08  <
  15  2  2  -2  12.65  -28.24  47.07  <
  15  2  -2  -2  13.05  1.88  50.84  <
  15  2  2  -1  675.29  638.65  90.50  o
  15  2  -2  -1  652.28  845.86  101.33  o
  15  2  2  0  2996.76  2746.14  155.98  o
  15  2  -2  0  2815.71  2823.12  154.71  o
  15  2  2  1  53.94  32.01  62.14  <
  15  2  -2  1  79.58  143.11  62.11  <
  15  2  2  2  35.35  22.60  60.26  <
  15  2  -2  2  37.63  7.53  56.49  <
  16  2  2  -2  12.01  -7.53  56.49  <
  16  2  -2  -2  9.39  -32.01  52.72  <
  16  2  2  -1  28.15  -45.19  48.95  <
  16  2  -2  -1  41.17  52.72  58.37  <
  16  2  2  0  488.14  320.21  83.08  o
  16  2  -2  0  492.36  235.45  79.39  <
  16  2  2  1  1986.63  2170.43  150.17  o
  16  2  -2  1  1929.71  2108.11  146.41  o
  16  2  2  2  16.57  -88.50  62.11  <
  16  2  -2  2  13.15  32.01  65.90  <
  17  2  2  -2  12.02  -77.20  60.23  <
  17  2  -2  -2  8.10  52.72  67.78  <
  17  2  2  -1  436.57  339.03  92.40  o
  17  2  -2  -1  430.23  444.50  99.81  o
  17  2  2  0  1546.97  1920.83  162.90  o
  17  2  -2  0  1610.79  1534.48  145.37  o
  17  2  2  1  363.22  269.32  88.60  o
  17  2  -2  1  286.54  316.39  92.25  o
  17  2  2  2  30.33  -13.18  71.55  <
  17  2  -2  2  27.01  0.00  67.79  <
  18  2  2  -2  62.44  5.65  71.56  <
  18  2  -2  -2  62.06  56.49  77.20  <
  18  2  2  -1  54.53  54.61  90.38  <
  18  2  -2  -1  64.52  -41.43  77.20  <
  0  3  2  -2  34.53  7.53  18.84  <
  0  3  -2  -2  38.39  1.88  18.84  <
  0  3  2  -1  514.86  491.92  50.95  o
  0  3  -2  -1  512.51  476.84  47.22  o
  0  3  2  0  15174.20  14970.80  319.16  o
  0  3  -2  0  14883.80  14724.40  328.02  o
  0  3  2  1  20.04  -18.83  26.36  <
  0  3  -2  1  25.49  -15.06  28.24  <
  0  3  2  2  404.84  386.20  52.79  o
  0  3  -2  2  420.50  344.76  51.01  o
  1  3  2  -2  50.37  15.06  15.08  <
  1  3  -2  -2  51.03  -3.77  15.08  <
  1  3  2  -1  1151.09  1222.78  44.78  o
  1  3  -2  -1  1160.25  1134.11  45.46  o
  1  3  2  0  543.97  555.95  39.53  o
  1  3  -2  0  482.34  563.43  37.38  o
  1  3  2  1  2922.15  2821.19  74.78  o
  1  3  -2  1  2938.31  2741.84  79.40  o
  1  3  2  2  67.52  47.08  24.49  <
  1  3  -2  2  62.96  33.89  22.61  <
  2  3  2  -2  0.44  -11.30  11.30  <
  2  3  -2  -2  0.48  3.77  15.06  <
  2  3  2  -1  371.34  369.30  28.27  o
  2  3  -2  -1  374.91  418.29  35.67  o
  2  3  2  0  6599.36  6829.50  110.49  o
  2  3  -2  0  6626.17  6614.75  137.16  o
  2  3  2  1  3.36  -5.65  16.95  <
  2  3  -2  1  3.53  -16.95  20.71  <
  2  3  2  2  17.94  -5.65  18.83  <
  2  3  -2  2  18.02  24.48  28.24  <
  3  3  2  -2  32.29  20.71  15.07  <
  3  3  -2  -2  34.00  33.89  16.95  <
  3  3  2  -1  1184.63  1175.48  41.58  o
  3  3  -2  -1  1214.44  1151.01  49.46  o
  3  3  2  0  1388.70  1215.19  50.25  o
  3  3  -2  0  1277.79  1330.06  48.68  o
  3  3  2  1  3918.55  3500.28  86.25  o
  3  3  -2  1  3873.55  3933.55  82.53  o
  3  3  2  2  1.14  1.88  20.71  <
  3  3  -2  2  1.86  7.53  26.36  <
  4  3  2  -2  54.60  32.01  18.84  <
  4  3  -2  -2  51.23  48.96  18.83  <
  4  3  2  -1  187.74  178.93  26.38  o
  4  3  -2  -1  204.60  158.22  18.95  o
  4  3  2  0  50369.60  48632.50  629.97  o
  4  3  -2  0  50516.90  47468.90  650.44  o
  4  3  2  1  414.45  397.51  39.61  o
  4  3  -2  1  420.12  444.61  45.15  o
  4  3  2  2  285.23  291.95  43.31  o
  4  3  -2  2  279.02  212.84  35.90  o
  5  3  2  -2  16.19  -3.77  16.95  <
  5  3  -2  -2  15.29  3.77  16.95  <
  5  3  2  -1  939.39  850.41  45.71  o
  5  3  -2  -1  851.02  1008.66  44.35  o
  5  3  2  0  166.27  182.68  31.99  o
  5  3  -2  0  200.80  201.52  30.13  o
  5  3  2  1  2296.57  2196.14  85.68  o
  5  3  -2  1  2304.39  2218.82  78.08  o
  5  3  2  2  6.41  11.30  30.13  <
  5  3  -2  2  4.32  7.53  26.36  <
  6  3  2  -2  10.10  5.65  16.95  <
  6  3  -2  -2  9.87  -3.77  18.83  <
  6  3  2  -1  458.96  437.11  41.51  o
  6  3  -2  -1  442.27  423.92  41.50  o
  6  3  2  0  14877.80  14546.90  273.48  o
  6  3  -2  0  14739.20  14367.80  247.66  o
  6  3  2  1  77.18  45.19  32.03  <
  6  3  -2  1  78.21  64.02  32.02  <
  6  3  2  2  15.72  -16.95  28.24  <
  6  3  -2  2  15.07  -5.65  28.24  <
  7  3  2  -2  6.41  -7.53  20.71  <
  7  3  -2  -2  5.19  -16.95  20.71  <
  7  3  2  -1  388.17  325.91  45.34  o
  7  3  -2  -1  376.03  339.09  45.29  o
  7  3  2  0  1125.17  1317.94  72.65  o
  7  3  -2  0  1296.62  1046.65  68.99  o
  7  3  2  1  2739.38  2816.04  101.43  o
  7  3  -2  1  2763.70  2580.02  101.39  o
  7  3  2  2  37.91  26.36  35.78  <
  7  3  -2  2  37.46  7.53  30.13  <
  8  3  2  -2  26.06  28.24  28.24  <
  8  3  -2  -2  26.43  22.60  26.36  <
  8  3  2  -1  954.41  889.76  66.22  o
  8  3  -2  -1  915.82  976.42  67.63  o
  8  3  2  0  18280.80  17839.70  335.03  o
  8  3  -2  0  18102.20  17563.30  336.26  o
  8  3  2  1  105.59  77.21  37.68  <
  8  3  -2  1  106.38  90.39  35.79  <
  8  3  2  2  366.79  355.99  54.64  o
  8  3  -2  2  372.00  237.33  49.18  o
  9  3  2  -2  5.38  -7.53  28.24  <
  9  3  -2  -2  5.53  41.42  30.12  <
  9  3  2  -1  87.22  96.04  37.66  <
  9  3  -2  -1  114.38  92.27  39.56  <
  9  3  2  0  821.03  904.57  77.01  o
  9  3  -2  0  817.17  827.30  75.35  o
  9  3  2  1  1660.25  1620.08  90.72  o
  9  3  -2  1  1684.92  1595.60  89.08  o
  9  3  2  2  76.03  131.81  47.04  <
  9  3  -2  2  74.72  124.28  43.28  <
  10  3  2  -2  4.21  -3.77  30.13  <
  10  3  -2  -2  4.06  -20.71  28.24  <
  10  3  2  -1  1398.16  1376.52  83.06  o
  10  3  -2  -1  1424.10  1538.72  88.11  o
  10  3  2  0  2560.11  2744.67  115.90  o
  10  3  -2  0  2673.62  2401.38  113.00  o
  10  3  2  1  232.33  184.56  50.90  o
  10  3  -2  1  232.09  188.33  49.01  o
  10  3  2  2  17.54  -35.78  35.77  <
  10  3  -2  2  20.58  -50.84  33.88  <
  11  3  2  -2  56.23  -11.30  33.90  <
  11  3  -2  -2  54.38  47.07  35.78  <
  11  3  2  -1  325.63  399.30  62.04  o
  11  3  -2  -1  323.50  333.38  58.37  o
  11  3  2  0  2456.99  2291.05  114.14  o
  11  3  -2  0  2345.34  2438.00  116.48  o
  11  3  2  1  1181.99  1047.99  100.29  o
  11  3  -2  1  1193.74  1125.28  94.47  o
  11  3  2  2  5.45  -15.06  39.54  <
  11  3  -2  2  7.17  35.78  43.30  <
  12  3  2  -2  15.53  24.48  37.66  <
  12  3  -2  -2  18.37  -41.42  35.77  <
  12  3  2  -1  328.38  337.14  60.26  o
  12  3  -2  -1  349.47  327.73  56.54  o
  12  3  2  0  5612.90  5445.59  184.87  o
  12  3  -2  0  5627.27  5761.65  184.32  o
  12  3  2  1  459.23  561.32  80.82  o
  12  3  -2  1  456.20  452.07  71.58  o
  12  3  2  2  158.51  128.05  58.40  <
  12  3  -2  2  157.67  105.46  56.52  <
  13  3  2  -2  14.34  -11.30  37.66  <
  13  3  -2  -2  14.70  15.06  39.54  <
  13  3  2  -1  112.27  79.09  48.98  <
  13  3  -2  -1  112.30  114.87  48.96  <
  13  3  2  0  701.14  904.31  97.50  o
  13  3  -2  0  738.64  672.60  81.16  o
  13  3  2  1  1394.64  1193.20  109.95  o
  13  3  -2  1  1356.61  1223.33  107.86  o
  13  3  2  2  29.65  37.66  56.49  <
  13  3  -2  2  30.64  -22.60  48.95  <
  14  3  2  -2  4.11  -9.41  47.07  <
  14  3  -2  -2  3.89  -56.49  45.18  <
  14  3  2  -1  490.92  297.61  73.72  o
  14  3  -2  -1  457.97  442.64  73.48  o
  14  3  2  0  1509.34  1459.09  122.69  o
  14  3  -2  0  1443.45  1445.82  114.98  o
  14  3  2  1  4.41  7.53  58.37  <
  14  3  -2  1  4.27  37.66  54.60  <
  14  3  2  2  66.34  -5.65  52.73  <
  14  3  -2  2  67.35  -1.88  58.38  <
  15  3  2  -2  9.28  62.14  60.24  <
  15  3  -2  -2  10.58  52.72  54.60  <
  15  3  2  -1  168.19  137.47  69.69  <
  15  3  -2  -1  163.99  129.94  69.69  <
  15  3  2  0  2013.81  1765.07  144.17  o
  15  3  -2  0  1999.03  1976.25  147.17  o
  15  3  2  1  875.62  911.91  122.40  o
  15  3  -2  1  857.33  877.98  111.12  o
  15  3  2  2  35.61  -22.60  62.14  <
  15  3  -2  2  38.24  28.24  65.90  <
  16  3  2  -2  57.70  103.56  65.89  <
  16  3  -2  -2  56.44  33.89  60.26  <
  16  3  2  -1  723.61  683.85  111.22  o
  16  3  -2  -1  725.61  889.20  116.49  o
  16  3  2  0  2571.17  2567.42  171.68  o
  16  3  -2  0  2543.34  2265.55  174.55  o
  16  3  2  1  87.68  122.39  80.96  <
  16  3  -2  1  91.28  77.20  82.86  <
  17  3  2  -2  2.74  -13.18  65.90  <
  17  3  -2  -2  2.17  -9.41  65.90  <
  17  3  2  -1  343.58  344.65  94.17  o
  17  3  -2  -1  346.88  222.24  86.74  <
  0  4  2  -2  0.45  -18.83  24.47  <
  0  4  -2  -2  0.51  -9.41  26.36  <
  0  4  2  -1  3814.32  3630.15  120.75  o
  0  4  -2  -1  3840.57  3842.27  128.69  o
  0  4  2  0  4986.41  4807.84  162.45  o
  0  4  -2  0  4761.07  4344.43  164.04  o
  0  4  2  1  243.33  71.57  47.21  <
  0  4  -2  1  285.30  143.14  45.36  o
  0  4  2  2  113.16  35.78  43.34  <
  0  4  -2  2  95.20  33.90  45.21  <
  1  4  2  -2  30.02  9.41  18.83  <
  1  4  -2  -2  29.77  15.06  20.72  <
  1  4  2  -1  107.78  128.05  28.22  o
  1  4  -2  -1  101.37  114.87  30.12  o
  1  4  2  0  20157.70  19440.10  313.18  o
  1  4  -2  0  19202.00  19967.20  315.03  o
  1  4  2  1  204.20  258.01  43.24  o
  1  4  -2  1  194.59  199.63  41.43  o
  1  4  2  2  339.62  429.45  46.88  o
  1  4  -2  2  339.53  359.75  54.59  o
  2  4  2  -2  6.17  -22.59  15.06  <
  2  4  -2  -2  6.23  3.77  18.83  <
  2  4  2  -1  46.84  24.48  18.84  <
  2  4  -2  -1  43.67  30.13  26.37  <
  2  4  2  0  2039.05  1949.77  74.25  o
  2  4  -2  0  2036.35  2102.65  88.30  o
  2  4  2  1  3.23  -1.88  22.59  <
  2  4  -2  1  2.61  22.59  35.77  <
  2  4  2  2  12.77  0.00  28.24  <
  2  4  -2  2  12.93  11.30  35.78  <
  3  4  2  -2  23.77  3.77  16.95  <
  3  4  -2  -2  23.48  7.53  16.95  <
  3  4  2  -1  599.09  516.31  43.62  o
  3  4  -2  -1  512.32  634.95  56.18  o
  3  4  2  0  10472.50  11780.60  172.85  o
  3  4  -2  0  12004.20  10915.50  246.59  o
  3  4  2  1  252.36  433.18  52.39  o
  3  4  -2  1  270.35  297.58  56.47  o
  3  4  2  2  243.41  193.98  41.50  o
  3  4  -2  2  259.94  306.99  50.78  o
  4  4  2  -2  38.06  18.83  20.72  <
  4  4  -2  -2  34.63  -7.53  20.72  <
  4  4  2  -1  1747.30  1541.67  72.93  o
  4  4  -2  -1  1713.71  1601.99  66.78  o
  4  4  2  0  604.56  552.06  56.67  o
  4  4  -2  0  581.21  587.85  54.62  o
  4  4  2  1  142.77  167.60  41.40  o
  4  4  -2  1  125.98  186.43  45.14  o
  4  4  2  2  56.85  16.95  33.90  <
  4  4  -2  2  44.74  15.06  32.02  <
  5  4  2  -2  15.37  5.65  26.36  <
  5  4  -2  -2  16.79  -22.60  18.82  <
  5  4  2  -1  194.00  161.97  37.71  o
  5  4  -2  -1  198.57  177.03  35.81  o
  5  4  2  0  4973.75  5050.82  145.06  o
  5  4  -2  0  5145.90  4949.52  134.51  o
  5  4  2  1  230.68  148.78  39.65  o
  5  4  -2  1  211.65  199.63  48.98  o
  5  4  2  2  291.87  303.23  58.37  o
  5  4  -2  2  306.78  267.45  54.67  o
  6  4  2  -2  13.68  28.24  30.12  <
  6  4  -2  -2  13.33  5.65  26.36  <
  6  4  2  -1  229.69  224.12  43.33  o
  6  4  -2  -1  212.52  192.10  43.34  o
  6  4  2  0  23.45  88.50  35.74  <
  6  4  -2  0  52.59  -1.88  32.02  <
  6  4  2  1  47.30  47.07  33.89  <
  6  4  -2  1  47.00  26.36  37.66  <
  6  4  2  2  14.14  3.77  37.66  <
  6  4  -2  2  14.76  -30.13  35.77  <
  7  4  2  -2  39.05  3.77  28.25  <
  7  4  -2  -2  38.01  -18.83  28.24  <
  7  4  2  -1  2028.61  1890.77  89.49  o
  7  4  -2  -1  1997.76  2224.70  94.87  o
  7  4  2  0  13786.70  13071.70  285.80  o
  7  4  -2  0  12674.50  14092.70  289.72  o
  7  4  2  1  310.71  371.04  63.95  o
  7  4  -2  1  329.94  282.52  56.57  o
  7  4  2  2  314.52  237.31  56.60  o
  7  4  -2  2  322.69  227.89  56.62  o
  8  4  2  -2  1.36  15.06  32.01  <
  8  4  -2  -2  1.62  13.18  32.01  <
  8  4  2  -1  2114.03  2213.38  99.43  o
  8  4  -2  -1  2125.51  2113.40  98.19  o
  8  4  2  0  500.42  438.92  66.05  o
  8  4  -2  0  506.42  531.23  69.65  o
  8  4  2  1  10.80  11.30  41.42  <
  8  4  -2  1  28.33  3.77  41.43  <
  8  4  2  2  41.38  -15.06  41.43  <
  8  4  -2  2  43.27  -37.66  39.54  <
  9  4  2  -2  24.26  -18.83  33.89  <
  9  4  -2  -2  25.69  -22.60  32.01  <
  9  4  2  -1  424.20  538.73  65.70  o
  9  4  -2  -1  440.88  467.15  64.00  o
  9  4  2  0  6416.14  6441.04  202.43  o
  9  4  -2  0  6423.65  6085.03  201.65  o
  9  4  2  1  594.25  644.28  82.79  o
  9  4  -2  1  573.39  559.49  77.26  o
  9  4  2  2  211.84  178.90  60.29  <
  9  4  -2  2  195.93  177.02  60.28  <
  10  4  2  -2  47.72  -26.36  35.78  <
  10  4  -2  -2  48.35  9.41  33.90  <
  10  4  2  -1  260.24  395.50  67.61  o
  10  4  -2  -1  322.42  261.80  54.70  o
  10  4  2  0  4151.08  3966.40  165.60  o
  10  4  -2  0  4097.78  4130.61  164.17  o
  10  4  2  1  5.39  -30.13  45.19  <
  10  4  -2  1  7.62  32.01  43.30  <
  10  4  2  2  16.36  -9.41  50.84  <
  10  4  -2  2  15.85  52.72  47.06  <
  11  4  2  -2  23.73  1.88  35.78  <
  11  4  -2  -2  21.20  -16.95  37.66  <
  11  4  2  -1  1857.13  1819.91  113.32  o
  11  4  -2  -1  1828.48  1663.34  100.71  o
  11  4  2  0  7781.41  7726.00  239.25  o
  11  4  -2  0  8278.00  7156.62  242.65  o
  11  4  2  1  123.63  69.67  54.63  <
  11  4  -2  1  120.19  107.33  54.62  <
  11  4  2  2  168.79  82.86  62.18  <
  11  4  -2  2  173.74  126.17  62.17  <
  12  4  2  -2  26.39  -1.88  41.43  <
  12  4  -2  -2  28.05  37.66  43.31  <
  12  4  2  -1  1077.64  1183.50  110.90  o
  12  4  -2  -1  1032.96  1258.84  110.54  o
  12  4  2  0  637.96  659.34  92.27  o
  12  4  -2  0  583.11  489.78  81.16  o
  12  4  2  1  329.11  242.95  73.54  o
  12  4  -2  1  349.28  222.24  66.05  o
  12  4  2  2  59.89  -41.43  58.37  <
  12  4  -2  2  49.61  30.13  64.02  <
  13  4  2  -2  24.58  24.48  50.84  <
  13  4  -2  -2  28.72  -9.41  43.31  <
  13  4  2  -1  576.65  583.96  86.64  o
  13  4  -2  -1  606.70  663.09  94.09  o
  13  4  2  0  3628.66  3540.20  174.19  o
  13  4  -2  0  3323.74  3803.66  176.71  o
  13  4  2  1  330.25  161.97  69.82  <
  13  4  -2  1  311.12  278.73  77.25  o
  13  4  2  2  122.05  148.76  69.66  <
  13  4  -2  2  127.16  129.93  79.09  <
  14  4  2  -2  5.28  26.36  48.95  <
  14  4  -2  -2  6.70  -43.31  47.06  <
  14  4  2  -1  354.54  267.44  73.55  o
  14  4  -2  -1  341.12  310.76  75.37  o
  14  4  2  0  1964.82  2179.78  146.26  o
  14  4  -2  0  1980.55  1846.05  145.66  o
  14  4  2  1  17.35  48.96  64.01  <
  14  4  -2  1  16.68  -56.49  60.24  <
  15  4  2  -2  15.41  9.41  60.25  <
  15  4  -2  -2  14.69  -92.26  58.34  <
  15  4  2  -1  2199.20  2304.59  159.90  o
  15  4  -2  -1  2158.69  2210.23  146.89  o
  15  4  2  0  1990.75  1949.69  149.10  o
  15  4  -2  0  1975.83  1821.45  155.11  o
  16  4  2  -2  39.10  30.13  71.55  <
  16  4  -2  -2  30.44  -41.42  71.55  <
  16  4  2  -1  432.96  423.78  103.60  o
  16  4  -2  -1  487.90  367.29  115.01  o
  0  5  2  -2  37.94  41.43  39.54  <
  0  5  -2  -2  34.94  -3.77  37.66  <
  0  5  2  -1  1306.74  1261.37  92.55  o
  0  5  -2  -1  1247.12  1108.58  94.72  o
  0  5  2  0  107.25  203.37  58.30  o
  0  5  -2  0  86.33  148.76  56.45  <
  0  5  2  1  64.20  9.41  65.91  <
  0  5  -2  1  68.40  -26.36  48.96  <
  0  5  2  2  32.44  71.55  64.01  <
  0  5  -2  2  32.54  24.48  58.37  <
  1  5  2  -2  14.75  52.72  28.23  <
  1  5  -2  -2  17.12  5.65  22.60  <
  1  5  2  -1  4346.60  4389.95  113.04  o
  1  5  -2  -1  4293.58  4387.81  133.46  o
  1  5  2  0  348.98  342.80  50.87  o
  1  5  -2  0  338.10  388.00  54.53  o
  1  5  2  1  3004.48  2729.90  113.22  o
  1  5  -2  1  3028.86  2962.17  121.27  o
  1  5  2  2  13.97  5.65  47.07  <
  1  5  -2  2  13.45  41.42  52.72  <
  2  5  2  -2  12.20  -7.53  24.48  <
  2  5  -2  -2  13.01  11.30  26.36  <
  2  5  2  -1  10.37  37.66  32.00  <
  2  5  -2  -1  11.02  -5.65  33.89  <
  2  5  2  0  1888.71  1903.23  90.46  o
  2  5  -2  0  1928.32  1912.73  113.25  o
  2  5  2  1  2.85  -5.65  35.77  <
  2  5  -2  1  2.57  -7.53  43.31  <
  2  5  2  2  4.49  3.77  39.54  <
  2  5  -2  2  4.20  65.90  56.47  <
  3  5  2  -2  11.66  -16.95  24.48  <
  3  5  -2  -2  12.97  18.83  33.89  <
  3  5  2  -1  2593.29  2544.79  94.74  o
  3  5  -2  -1  2604.43  2539.16  115.54  o
  3  5  2  0  706.30  853.51  76.84  o
  3  5  -2  0  677.05  819.57  78.76  o
  3  5  2  1  3764.91  3872.54  135.20  o
  3  5  -2  1  3739.52  3592.88  150.18  o
  3  5  2  2  6.30  37.66  69.66  <
  3  5  -2  2  4.94  7.53  52.72  <
  4  5  2  -2  0.38  24.48  32.01  <
  4  5  -2  -2  0.54  -5.65  30.13  <
  4  5  2  -1  870.11  853.68  73.55  o
  4  5  -2  -1  836.32  795.23  73.61  o
  4  5  2  0  3395.23  3569.72  150.01  o
  4  5  -2  0  3418.96  3379.03  138.14  o
  4  5  2  1  90.17  60.26  47.09  <
  4  5  -2  1  69.39  -11.30  41.43  <
  4  5  2  2  51.85  -3.77  69.67  <
  4  5  -2  2  48.38  9.41  50.84  <
  5  5  2  -2  25.11  39.54  33.89  <
  5  5  -2  -2  26.52  -3.77  30.13  <
  5  5  2  -1  3676.00  3609.01  123.35  o
  5  5  -2  -1  3676.08  3469.19  133.74  o
  5  5  2  0  572.87  546.32  75.41  o
  5  5  -2  0  598.92  561.40  75.43  o
  5  5  2  1  2569.19  2458.69  145.80  o
  5  5  -2  1  2591.96  2634.22  126.19  o
  5  5  2  2  0.05  50.84  58.36  <
  5  5  -2  2  0.03  -20.71  50.84  <
  6  5  2  -2  14.59  -24.48  32.01  <
  6  5  -2  -2  16.10  9.41  33.89  <
  6  5  2  -1  193.11  205.27  54.60  o
  6  5  -2  -1  194.26  156.31  47.12  o
  6  5  2  0  4615.86  4032.33  161.04  o
  6  5  -2  0  4515.54  4410.04  165.21  o
  6  5  2  1  14.70  35.78  56.48  <
  6  5  -2  1  16.44  -11.30  41.42  <
  6  5  2  2  2.60  -52.72  47.06  <
  6  5  -2  2  2.20  -26.36  47.07  <
  7  5  2  -2  71.20  3.77  37.67  <
  7  5  -2  -2  64.58  28.25  37.67  <
  7  5  2  -1  3113.03  3038.03  132.63  o
  7  5  -2  -1  3112.40  2860.55  129.93  o
  7  5  2  0  976.86  1128.78  103.22  o
  7  5  -2  0  1038.53  1164.65  103.29  o
  7  5  2  1  2626.10  2983.11  173.92  o
  7  5  -2  1  2670.84  2630.36  134.18  o
  7  5  2  2  21.49  48.96  65.90  <
  7  5  -2  2  23.66  32.01  52.72  <
  8  5  2  -2  12.61  37.66  41.42  <
  8  5  -2  -2  13.90  -13.18  37.66  <
  8  5  2  -1  891.08  806.50  90.66  o
  8  5  -2  -1  793.57  985.43  97.50  o
  8  5  2  0  78.99  18.83  45.21  <
  8  5  -2  0  84.01  94.15  50.84  <
  8  5  2  1  364.15  231.66  84.87  <
  8  5  -2  1  385.02  325.84  71.65  o
  8  5  2  2  62.77  88.50  71.55  <
  8  5  -2  2  63.11  45.19  62.14  <
  9  5  2  -2  54.26  71.55  45.18  <
  9  5  -2  -2  60.41  20.71  41.43  <
  9  5  2  -1  1234.41  1289.22  109.15  o
  9  5  -2  -1  1310.25  1213.91  107.74  o
  9  5  2  0  615.82  664.98  88.44  o
  9  5  -2  0  602.58  557.60  86.73  o
  9  5  2  1  2189.99  2295.30  167.48  o
  9  5  -2  1  2193.07  1940.73  133.05  o
  9  5  2  2  10.57  88.50  79.07  <
  9  5  -2  2  9.95  135.57  71.51  <
  10  5  2  -2  9.10  64.02  50.83  <
  10  5  -2  -2  8.42  39.54  43.30  <
  10  5  2  -1  409.13  337.15  73.55  o
  10  5  -2  -1  425.29  467.12  79.04  o
  10  5  2  0  1159.87  1317.32  116.39  o
  10  5  -2  0  1284.03  1208.13  117.07  o
  10  5  2  1  53.71  103.56  73.42  <
  10  5  -2  1  53.46  52.72  64.02  <
  10  5  2  2  6.76  16.95  71.55  <
  10  5  -2  2  8.11  -32.01  58.37  <
  11  5  2  -2  16.95  28.24  50.84  <
  11  5  -2  -2  26.05  47.07  50.83  <
  11  5  2  -1  1616.84  1261.23  119.87  o
  11  5  -2  -1  1580.77  1606.19  120.56  o
  11  5  2  0  1274.75  1232.59  126.39  o
  11  5  -2  0  1305.50  1257.12  133.94  o
  11  5  2  1  1574.68  1449.60  162.42  o
  11  5  -2  1  1624.35  1370.48  143.96  o
  12  5  2  -2  33.56  -11.30  47.07  <
  12  5  -2  -2  31.61  39.54  52.72  <
  12  5  2  -1  329.68  237.30  71.66  o
  12  5  -2  -1  368.41  239.19  71.71  o
  12  5  2  0  53.19  124.28  75.29  <
  12  5  -2  0  53.82  97.91  71.54  <
  12  5  2  1  341.19  436.94  111.02  o
  12  5  -2  1  314.47  325.81  90.39  o
  13  5  2  -2  49.36  -28.24  52.72  <
  13  5  -2  -2  50.29  13.18  56.49  <
  13  5  2  -1  871.76  825.23  109.37  o
  13  5  -2  -1  856.79  653.77  109.63  o
  13  5  2  0  1625.52  1377.99  147.69  o
  13  5  -2  0  1645.64  1598.57  158.48  o
  14  5  2  -2  27.36  -28.24  60.25  <
  14  5  -2  -2  30.25  28.24  69.67  <
  14  5  2  -1  284.20  193.98  82.93  <
  14  5  -2  -1  270.43  297.55  90.37  o
  15  5  2  -2  52.08  62.14  67.78  <
  15  5  -2  -2  44.45  13.18  71.55  <
  0  6  2  -2  51.60  -3.77  50.84  <
  0  6  -2  -2  54.75  37.66  48.96  <
  0  6  2  -1  305.67  224.12  82.93  <
  0  6  -2  -1  305.15  403.04  95.95  o
  0  6  2  0  799.04  780.02  135.68  o
  0  6  -2  0  798.04  625.52  175.40  o
  0  6  2  1  2204.35  2091.63  188.94  o
  0  6  -2  1  2073.85  1616.18  232.89  o
  0  6  2  2  28.71  88.50  94.13  <
  1  6  2  -2  77.41  169.47  45.12  o
  1  6  -2  -2  76.61  116.75  43.28  <
  1  6  2  -1  87.34  107.33  45.18  <
  1  6  -2  -1  92.76  56.49  43.33  <
  1  6  2  0  3524.35  3085.32  181.48  o
  1  6  -2  0  3308.36  3426.49  167.38  o
  1  6  2  1  98.63  150.64  62.11  <
  1  6  -2  1  89.37  158.17  88.47  <
  1  6  2  2  282.60  410.55  131.73  o
  1  6  -2  2  278.80  480.23  175.02  <
  2  6  2  -2  11.82  -43.31  30.11  <
  2  6  -2  -2  11.68  -9.41  39.54  <
  2  6  2  -1  16.13  65.90  41.41  <
  2  6  -2  -1  15.82  26.36  54.60  <
  2  6  2  0  33.42  -20.71  67.79  <
  2  6  -2  0  24.49  73.43  54.59  <
  2  6  2  1  6.63  -56.49  128.03  <
  2  6  -2  1  6.26  90.38  88.48  <
  2  6  2  2  9.30  -80.96  269.25  <
  2  6  -2  2  9.38  16.95  86.61  <
  3  6  2  -2  115.99  96.04  39.56  <
  3  6  -2  -2  116.42  129.93  48.95  <
  3  6  2  -1  386.15  293.83  79.21  o
  3  6  -2  -1  352.22  420.01  88.44  o
  3  6  2  0  3582.94  4099.31  207.00  o
  3  6  -2  0  4011.47  3930.70  202.53  o
  3  6  2  1  51.33  86.62  96.02  <
  3  6  -2  1  51.88  35.78  67.79  <
  3  6  2  2  289.04  327.69  220.33  <
  3  6  -2  2  294.76  126.18  145.07  <
  4  6  2  -2  18.57  13.18  39.54  <
  4  6  -2  -2  20.44  48.96  43.30  <
  4  6  2  -1  153.66  112.99  75.34  <
  4  6  -2  -1  125.25  182.66  60.22  o
  4  6  2  0  320.90  352.19  77.18  o
  4  6  -2  0  263.80  395.49  75.17  o
  4  6  2  1  2091.31  2010.29  181.28  o
  4  6  -2  1  2164.06  1861.41  153.79  o
  4  6  2  2  26.42  -52.72  80.96  <
  4  6  -2  2  20.84  18.83  133.69  <
  5  6  2  -2  58.57  -7.53  47.08  <
  5  6  -2  -2  58.07  47.07  43.31  <
  5  6  2  -1  336.06  209.06  66.05  o
  5  6  -2  -1  360.51  374.80  71.55  o
  5  6  2  0  1281.73  1264.66  122.56  o
  5  6  -2  0  1222.35  1485.11  129.29  o
  5  6  2  1  74.68  -20.71  60.26  <
  5  6  -2  1  74.17  0.00  77.21  <
  5  6  2  2  253.90  254.24  165.72  <
  5  6  -2  2  265.77  62.15  145.06  <
  6  6  2  -2  20.94  54.60  52.71  <
  6  6  -2  -2  19.73  47.07  45.18  <
  6  6  2  -1  154.80  86.62  67.82  <
  6  6  -2  -1  141.60  90.39  54.64  <
  6  6  2  0  81.36  90.38  64.02  <
  6  6  -2  0  98.48  118.63  64.01  <
  6  6  2  1  88.66  0.00  65.92  <
  6  6  -2  1  91.01  58.37  86.63  <
  7  6  2  -2  22.78  1.88  50.84  <
  7  6  -2  -2  24.08  54.60  47.07  <
  7  6  2  -1  1100.83  998.79  134.01  o
  7  6  -2  -1  1042.49  1034.54  105.55  o
  7  6  2  0  2990.57  2283.38  157.78  o
  7  6  -2  0  2531.88  2971.15  165.91  o
  7  6  2  1  100.12  169.47  71.52  <
  7  6  -2  1  121.06  148.76  105.44  <
  8  6  2  -2  12.76  -1.88  54.60  <
  8  6  -2  -2  13.70  22.59  48.95  <
  8  6  2  -1  303.40  374.78  92.21  o
  8  6  -2  -1  316.37  220.35  67.90  o
  8  6  2  0  251.21  209.04  84.78  <
  8  6  -2  0  294.54  180.80  71.66  <
  8  6  2  1  1234.71  1238.15  137.56  o
  8  6  -2  1  1206.89  1019.52  179.33  o
  9  6  2  -2  22.64  60.25  69.66  <
  9  6  -2  -2  22.42  35.78  52.72  <
  9  6  2  -1  458.54  404.96  99.89  o
  9  6  -2  -1  465.13  335.27  79.27  o
  9  6  2  0  1799.03  2034.28  176.53  o
  9  6  -2  0  1855.27  1710.07  143.77  o
  10  6  2  -2  9.14  16.95  60.25  <
  10  6  -2  -2  10.90  7.53  58.37  <
  10  6  2  -1  204.72  269.29  88.46  o
  10  6  -2  -1  225.93  146.89  71.61  <
  10  6  2  0  323.11  218.46  103.65  <
  10  6  -2  0  288.19  346.52  95.99  o
  11  6  2  -2  41.06  16.95  62.14  <
  11  6  -2  -2  37.36  -56.49  60.24  <
  11  6  2  -1  1341.54  1421.06  171.34  o
  11  6  -2  -1  1379.85  1517.22  144.75  o
  12  6  2  -2  2.12  15.06  67.78  <
  12  6  -2  -2  2.20  -26.36  64.02  <
  0  7  2  -2  12.39  -15.06  65.90  <
  0  7  -2  -2  9.93  54.60  109.20  <
  0  7  2  -1  1562.26  1692.79  174.98  o
  0  7  -2  -1  1450.78  1677.57  254.08  o
  0  7  2  0  1662.47  2034.06  257.53  o
  1  7  2  -2  0.86  30.13  60.25  <
  1  7  -2  -2  0.81  79.08  75.30  <
  1  7  2  -1  4049.30  4081.14  266.15  o
  1  7  -2  -1  4061.89  4366.35  266.88  o
  1  7  2  0  597.27  651.76  122.36  o
  1  7  -2  0  609.80  438.90  177.20  <
  2  7  2  -2  9.28  -71.55  122.38  <
  2  7  -2  -2  10.07  39.54  62.13  <
  2  7  2  -1  3.78  -80.96  269.25  <
  2  7  -2  -1  3.22  97.91  94.13  <
  2  7  2  0  1000.52  1019.37  173.32  o
  2  7  -2  0  1017.26  1234.19  271.08  o
  3  7  2  -2  12.20  3.77  60.25  <
  3  7  -2  -2  14.09  41.42  67.78  <
  3  7  2  -1  3301.51  3002.94  263.30  o
  3  7  -2  -1  3370.58  3748.68  253.38  o
  3  7  2  0  351.45  269.32  114.94  <
  3  7  -2  0  301.46  177.03  165.77  <
  4  7  2  -2  18.12  -15.06  128.04  <
  4  7  -2  -2  20.60  5.65  62.14  <
  4  7  2  -1  1170.25  1021.40  177.38  o
  4  7  -2  -1  1102.54  1441.57  278.46  o
  5  7  2  -2  32.34  26.36  58.37  <
  5  7  -2  -2  37.31  56.49  75.31  <
  5  7  2  -1  3268.56  3227.35  222.87  o
  5  7  -2  -1  3201.21  3766.95  252.65  o
  6  7  2  -2  29.72  47.07  60.25  <
  6  7  -2  -2  31.07  -1.88  69.67  <
  6  7  2  -1  2.25  5.65  71.55  <
  6  7  -2  -1  3.36  26.36  86.61  <
  7  7  2  -2  68.81  -15.06  58.38  <
  7  7  -2  -2  55.67  50.84  73.44  <
  8  7  2  -2  14.61  -52.72  58.36  <
  8  7  -2  -2  16.87  24.48  60.25  <
  9  7  2  -2  58.63  65.90  69.67  <
  9  7  -2  -2  62.63  37.66  69.67  <
  1  0  3  1  40.44  41.43  13.18  o
  1  0  -3  1  38.52  62.15  13.16  o
  1  0  3  2  0.80  13.18  11.29  <
  1  0  -3  2  0.71  -3.77  11.30  <
  2  0  3  0  25962.20  26677.70  401.56  o
  2  0  -3  0  26023.70  27616.20  382.99  o
  2  0  3  1  3.44  18.83  9.41  <
  2  0  -3  1  3.96  11.30  11.30  <
  2  0  3  2  0.96  11.30  11.30  <
  2  0  -3  2  0.93  -1.88  11.30  <
  3  0  3  1  89.73  97.94  13.17  o
  3  0  -3  1  91.63  73.46  13.21  o
  3  0  3  2  26.93  18.83  13.18  <
  3  0  -3  2  28.12  3.77  11.31  <
  4  0  3  0  36538.40  37509.20  706.10  o
  4  0  -3  0  36566.40  37422.20  658.80  o
  4  0  3  1  54.27  37.66  15.08  <
  4  0  -3  1  56.34  28.25  13.20  <
  4  0  3  2  1.82  -3.77  13.18  <
  4  0  -3  2  1.51  -9.41  13.18  <
  5  0  3  1  255.08  324.06  28.06  o
  5  0  -3  1  285.25  258.14  18.94  o
  5  0  3  2  10.50  3.77  13.18  <
  5  0  -3  2  10.09  -11.30  13.18  <
  6  0  3  0  7111.41  7072.02  151.49  o
  6  0  -3  0  7197.29  7184.17  156.92  o
  6  0  3  1  184.24  188.36  24.48  o
  6  0  -3  1  185.11  199.66  18.80  o
  6  0  3  2  58.52  -26.36  13.19  <
  6  0  -3  2  60.22  -11.30  15.08  <
  7  0  3  1  346.54  324.06  32.09  o
  7  0  -3  1  360.72  305.23  22.82  o
  7  0  3  2  2.67  3.77  18.83  <
  7  0  -3  2  1.42  1.88  15.06  <
  8  0  3  0  350.49  431.42  43.13  o
  8  0  -3  0  379.66  341.01  41.54  o
  8  0  3  1  429.39  359.88  36.00  o
  8  0  -3  1  437.10  403.22  28.40  o
  8  0  3  2  31.40  3.77  18.83  <
  8  0  -3  2  33.76  16.95  16.95  <
  9  0  3  1  565.72  576.62  47.07  o
  9  0  -3  1  537.09  510.65  37.78  o
  9  0  3  2  7.23  45.19  24.46  <
  9  0  -3  2  7.14  -3.77  16.95  <
  10  0  3  0  9945.88  9987.23  306.62  o
  10  0  -3  0  9871.75  10013.00  227.13  o
  10  0  3  1  13.73  45.19  30.12  <
  10  0  -3  1  20.51  -3.77  18.83  <
  10  0  3  2  7.67  22.59  24.47  <
  10  0  -3  2  6.76  5.65  26.36  <
  11  0  3  1  183.15  173.26  45.21  o
  11  0  -3  1  191.64  199.63  37.65  o
  11  0  3  2  34.41  1.88  32.01  <
  11  0  -3  2  35.21  7.53  33.90  <
  12  0  3  0  32705.70  32682.90  763.59  o
  12  0  -3  0  32830.80  33131.10  759.95  o
  12  0  3  1  110.60  154.41  45.16  o
  12  0  -3  1  99.34  231.62  54.49  o
  12  0  3  2  63.55  -9.42  39.55  <
  12  0  -3  2  56.13  64.02  43.31  <
  13  0  3  1  272.46  265.56  60.28  o
  13  0  -3  1  302.20  190.23  58.50  o
  13  0  3  2  10.02  -16.95  37.66  <
  13  0  -3  2  11.45  11.30  41.42  <
  14  0  3  0  3691.30  3804.63  248.90  o
  14  0  -3  0  3903.02  3975.39  258.56  o
  14  0  3  1  511.20  574.54  82.77  o
  14  0  -3  1  522.23  359.80  79.34  o
  14  0  3  2  2.14  -30.13  39.54  <
  14  0  -3  2  1.50  5.65  45.19  <
  15  0  3  1  592.15  523.70  90.53  o
  15  0  -3  1  592.01  610.36  97.93  o
  15  0  3  2  24.14  -30.13  47.07  <
  15  0  -3  2  25.63  -15.06  52.72  <
  16  0  3  0  7685.28  7135.82  387.32  o
  16  0  -3  0  7754.01  8102.34  401.66  o
  16  0  3  1  107.40  54.61  65.92  <
  16  0  -3  1  109.13  101.68  65.91  <
  16  0  3  2  13.34  -3.77  58.37  <
  16  0  -3  2  17.79  71.55  65.89  <
  17  0  3  1  243.87  177.02  79.14  <
  17  0  -3  1  256.66  182.68  79.15  <
  17  0  3  2  29.42  -54.60  60.24  <
  17  0  -3  2  26.10  -37.66  60.25  <
  18  0  3  0  734.93  730.95  182.74  o
  18  0  -3  0  753.83  584.01  169.72  o
  18  0  3  1  581.67  617.85  120.51  o
  18  0  -3  1  601.13  563.23  113.07  o
  18  0  3  2  5.42  -105.44  67.75  <
  18  0  -3  2  6.69  -88.50  71.53  <
  1  1  3  -2  0.91  -5.65  7.53  <
  1  1  -3  -2  0.87  -13.18  9.41  <
  1  1  3  -1  35.17  56.50  15.05  o
  1  1  -3  -1  33.74  15.07  9.43  <
  1  1  3  0  1321.49  1319.09  37.87  o
  1  1  -3  0  1271.29  1337.75  35.30  o
  1  1  3  1  341.41  365.67  22.52  o
  1  1  -3  1  343.30  348.71  24.48  o
  1  1  3  2  23.26  16.95  11.30  <
  1  1  -3  2  21.03  1.88  13.18  <
  2  1  3  -2  4.68  1.88  9.41  <
  2  1  -3  -2  4.88  3.77  9.41  <
  2  1  3  -1  269.02  241.27  18.95  o
  2  1  -3  -1  274.07  254.48  20.80  o
  2  1  3  0  74040.90  78973.60  765.15  o
  2  1  -3  0  73926.00  78589.40  932.76  o
  2  1  3  1  1145.94  1161.86  33.86  o
  2  1  -3  1  1131.12  1129.69  35.91  o
  2  1  3  2  177.77  143.16  18.91  o
  2  1  -3  2  183.46  152.58  18.91  o
  3  1  3  -2  9.32  -13.18  9.41  <
  3  1  -3  -2  9.01  15.06  11.30  <
  3  1  3  -1  72.47  86.63  15.05  o
  3  1  -3  -1  72.14  60.27  15.08  o
  3  1  3  0  2270.92  2432.34  53.08  o
  3  1  -3  0  2438.80  2321.65  54.48  o
  3  1  3  1  324.16  358.05  26.26  o
  3  1  -3  1  310.67  327.89  26.33  o
  3  1  3  2  15.75  7.53  15.07  <
  3  1  -3  2  13.47  -5.65  13.18  <
  4  1  3  -2  8.94  3.77  13.18  <
  4  1  -3  -2  9.57  -11.30  9.41  <
  4  1  3  -1  86.75  86.63  16.95  o
  4  1  -3  -1  89.49  52.73  16.99  o
  4  1  3  0  17917.70  17139.10  247.61  o
  4  1  -3  0  17912.60  16864.90  254.21  o
  4  1  3  1  1162.95  1164.90  41.52  o
  4  1  -3  1  1156.67  1149.78  37.82  o
  4  1  3  2  3.34  3.77  15.06  <
  4  1  -3  2  3.94  7.53  13.18  <
  5  1  3  -2  3.38  5.65  15.06  <
  5  1  -3  -2  2.94  1.88  11.30  <
  5  1  3  -1  33.75  45.19  15.06  o
  5  1  -3  -1  40.94  39.54  15.07  <
  5  1  3  0  6569.31  6773.40  113.38  o
  5  1  -3  0  6370.07  7140.92  112.16  o
  5  1  3  1  272.46  252.45  28.31  o
  5  1  -3  1  250.20  244.90  28.27  o
  5  1  3  2  16.20  -22.60  16.94  <
  5  1  -3  2  15.91  5.65  15.07  <
  6  1  3  -2  4.54  -7.53  15.06  <
  6  1  -3  -2  4.27  -3.77  11.30  <
  6  1  3  -1  45.24  47.08  20.71  <
  6  1  -3  -1  44.77  41.43  13.18  o
  6  1  3  0  38730.60  38737.20  477.97  o
  6  1  -3  0  38760.30  38925.60  490.87  o
  6  1  3  1  1223.48  1217.18  49.11  o
  6  1  -3  1  1208.60  1169.97  49.31  o
  6  1  3  2  67.40  69.67  20.71  o
  6  1  -3  2  65.70  60.26  22.60  <
  7  1  3  -2  8.24  -11.30  16.94  <
  7  1  -3  -2  9.53  -28.24  11.28  <
  7  1  3  -1  83.05  60.26  20.73  <
  7  1  -3  -1  76.76  58.38  15.09  o
  7  1  3  0  4168.78  4007.01  94.79  o
  7  1  -3  0  4001.29  4076.01  95.85  o
  7  1  3  1  119.32  186.44  26.25  o
  7  1  -3  1  119.45  205.27  28.11  o
  7  1  3  2  31.04  7.53  20.72  <
  7  1  -3  2  29.34  -20.71  16.94  <
  8  1  3  -2  12.32  -11.30  18.83  <
  8  1  -3  -2  10.45  15.06  15.06  <
  8  1  3  -1  1193.06  1314.83  55.86  o
  8  1  -3  -1  1206.14  1243.17  39.31  o
  8  1  3  0  493.65  491.80  43.34  o
  8  1  -3  0  477.61  582.23  35.37  o
  8  1  3  1  33.80  1.88  20.72  <
  8  1  -3  1  53.91  -15.06  18.84  <
  8  1  3  2  9.46  0.00  22.60  <
  8  1  -3  2  10.62  -3.77  24.48  <
  9  1  3  -2  22.30  22.60  22.60  <
  9  1  -3  -2  22.97  1.88  18.83  <
  9  1  3  -1  109.77  97.93  30.14  o
  9  1  -3  -1  96.92  88.51  20.72  o
  9  1  3  0  989.15  1052.06  58.15  o
  9  1  -3  0  1119.44  1057.91  47.52  o
  9  1  3  1  141.03  75.33  28.31  <
  9  1  -3  1  115.66  161.95  37.62  o
  9  1  3  2  4.26  1.88  24.48  <
  9  1  -3  2  4.09  -7.53  24.48  <
  10  1  3  -2  2.02  -13.18  28.24  <
  10  1  -3  -2  2.18  -3.77  18.83  <
  10  1  3  -1  42.70  -1.88  24.49  <
  10  1  -3  -1  37.76  47.07  28.24  <
  10  1  3  0  16855.50  17242.50  274.22  o
  10  1  -3  0  16747.30  16842.50  309.92  o
  10  1  3  1  1226.77  1148.35  64.49  o
  10  1  -3  1  1222.81  1116.29  75.86  o
  10  1  3  2  167.90  182.68  43.30  o
  10  1  -3  2  176.10  158.19  43.33  o
  11  1  3  -2  19.25  -28.24  28.24  <
  11  1  -3  -2  18.09  -37.66  24.47  <
  11  1  3  -1  33.40  99.80  39.51  <
  11  1  -3  -1  52.94  56.49  35.78  <
  11  1  3  0  161.32  180.79  39.52  o
  11  1  -3  0  231.57  192.10  45.25  o
  11  1  3  1  439.10  399.36  58.47  o
  11  1  -3  1  452.83  446.46  56.53  o
  11  1  3  2  71.66  71.56  39.54  <
  11  1  -3  2  61.92  73.44  37.65  <
  12  1  3  -2  214.68  69.68  39.66  <
  12  1  -3  -2  227.31  131.83  47.17  <
  12  1  3  -1  140.68  109.22  45.22  <
  12  1  -3  -1  133.88  37.66  37.71  <
  12  1  3  0  20825.00  20698.00  418.95  o
  12  1  -3  0  20806.70  20636.00  385.10  o
  12  1  3  1  174.24  224.10  52.68  o
  12  1  -3  1  172.44  190.20  48.95  o
  12  1  3  2  77.88  28.25  35.79  <
  12  1  -3  2  85.57  71.56  39.55  <
  13  1  3  -2  9.28  -7.53  37.66  <
  13  1  -3  -2  6.60  -16.95  43.31  <
  13  1  3  -1  30.89  -64.02  33.87  <
  13  1  -3  -1  40.27  -33.89  39.54  <
  13  1  3  0  774.13  761.24  90.47  o
  13  1  -3  0  763.72  665.14  85.01  o
  13  1  3  1  41.10  32.01  43.31  <
  13  1  -3  1  41.29  30.13  43.31  <
  13  1  3  2  29.73  9.41  41.43  <
  13  1  -3  2  27.11  -77.20  31.97  <
  14  1  3  -2  0.30  1.88  43.31  <
  14  1  -3  -2  0.45  -13.18  45.19  <
  14  1  3  -1  60.49  65.90  47.07  <
  14  1  -3  -1  62.47  47.07  52.73  <
  14  1  3  0  14343.10  14743.40  346.33  o
  14  1  -3  0  14237.30  14244.50  348.79  o
  14  1  3  1  839.71  800.81  94.30  o
  14  1  -3  1  827.52  917.62  101.54  o
  14  1  3  2  5.13  -22.59  47.07  <
  14  1  -3  2  3.49  -3.77  47.07  <
  15  1  3  -2  37.94  47.07  56.49  <
  15  1  -3  -2  41.19  -3.77  48.96  <
  15  1  3  -1  354.17  365.39  75.32  o
  15  1  -3  -1  333.48  425.65  84.64  o
  15  1  3  0  1018.83  897.01  103.94  o
  15  1  -3  0  984.76  1060.93  122.32  o
  15  1  3  1  82.69  67.79  52.73  <
  15  1  -3  1  98.24  3.77  50.86  <
  15  1  3  2  13.50  56.49  56.48  <
  15  1  -3  2  16.55  -107.33  41.37  <
  16  1  3  -2  19.53  5.65  52.72  <
  16  1  -3  -2  14.20  -30.13  56.48  <
  16  1  3  -1  928.21  945.90  120.56  o
  16  1  -3  -1  938.64  974.17  122.40  o
  16  1  3  0  2218.53  2078.53  143.90  o
  16  1  -3  0  2182.25  2563.20  164.48  o
  16  1  3  1  387.08  420.01  84.71  o
  16  1  -3  1  388.77  348.44  86.68  o
  16  1  3  2  14.05  -28.24  56.48  <
  16  1  -3  2  9.11  -1.88  56.49  <
  17  1  3  -2  72.61  -9.41  65.91  <
  17  1  -3  -2  70.56  41.43  64.03  <
  17  1  3  -1  248.19  274.95  86.61  o
  17  1  -3  -1  235.79  180.79  81.01  <
  17  1  3  0  548.51  568.86  111.11  o
  17  1  -3  0  552.65  559.45  109.24  o
  17  1  3  1  30.04  9.41  71.55  <
  17  1  -3  1  24.88  -13.18  69.67  <
  17  1  3  2  43.46  35.78  67.79  <
  17  1  -3  2  54.46  -54.61  65.90  <
  18  1  3  -2  18.41  -5.65  73.43  <
  18  1  -3  -2  17.29  -43.31  71.55  <
  18  1  3  -1  41.21  71.55  75.31  <
  18  1  -3  -1  23.91  9.41  73.43  <
  18  1  3  0  1535.10  1596.57  197.79  o
  18  1  -3  0  1436.06  1411.74  160.27  o
  18  1  3  1  535.84  421.93  118.79  o
  18  1  -3  1  516.03  403.09  103.72  o
  18  1  3  2  17.00  0.00  90.38  <
  18  1  -3  2  16.84  41.42  80.96  <
  1  2  3  -2  4.95  -1.88  11.30  <
  1  2  -3  -2  5.54  -7.53  11.30  <
  1  2  3  -1  143.81  114.90  15.13  o
  1  2  -3  -1  142.10  154.46  18.81  o
  1  2  3  0  8998.68  8701.02  134.15  o
  1  2  -3  0  8482.50  9228.39  135.27  o
  1  2  3  1  240.86  290.11  30.02  o
  1  2  -3  1  241.92  308.94  29.97  o
  1  2  3  2  75.30  96.04  20.69  o
  1  2  -3  2  79.92  62.14  20.73  <
  2  2  3  -2  50.06  20.72  13.20  <
  2  2  -3  -2  50.04  20.72  13.20  <
  2  2  3  -1  4344.32  4190.02  61.93  o
  2  2  -3  -1  4315.29  4153.52  69.32  o
  2  2  3  0  3241.62  2909.46  70.30  o
  2  2  -3  0  3154.12  3003.70  71.89  o
  2  2  3  1  1364.26  1480.10  44.32  o
  2  2  -3  1  1391.51  1589.68  49.37  o
  2  2  3  2  62.96  116.75  20.65  o
  2  2  -3  2  62.24  122.40  22.52  o
  3  2  3  -2  3.20  -7.53  13.18  <
  3  2  -3  -2  3.52  -3.77  13.18  <
  3  2  3  -1  121.82  124.31  20.71  o
  3  2  -3  -1  122.02  129.96  20.70  o
  3  2  3  0  14455.60  15374.80  180.42  o
  3  2  -3  0  14509.30  14650.80  220.68  o
  3  2  3  1  696.88  723.96  31.89  o
  3  2  -3  1  659.91  804.97  38.84  o
  3  2  3  2  54.49  9.42  16.96  <
  3  2  -3  2  60.51  30.13  18.85  <
  4  2  3  -2  1.03  26.36  15.06  <
  4  2  -3  -2  1.18  3.77  13.18  <
  4  2  3  -1  795.57  795.96  37.72  o
  4  2  -3  -1  812.69  703.56  32.73  o
  4  2  3  0  33822.70  33272.20  428.99  o
  4  2  -3  0  33828.70  33455.10  419.42  o
  4  2  3  1  491.05  461.70  37.79  o
  4  2  -3  1  495.58  486.20  37.72  o
  4  2  3  2  1.11  -7.53  18.83  <
  4  2  -3  2  1.40  0.00  15.06  <
  5  2  3  -2  10.12  -7.53  13.18  <
  5  2  -3  -2  10.13  0.00  15.06  <
  5  2  3  -1  680.63  625.95  37.96  o
  5  2  -3  -1  706.60  629.75  38.06  o
  5  2  3  0  9526.57  10128.30  160.78  o
  5  2  -3  0  9650.04  9780.06  156.81  o
  5  2  3  1  381.88  403.18  37.62  o
  5  2  -3  1  406.62  356.10  32.19  o
  5  2  3  2  19.78  -3.77  20.71  <
  5  2  -3  2  20.28  24.48  20.71  <
  6  2  3  -2  184.79  150.68  24.55  o
  6  2  -3  -2  187.53  129.96  24.58  o
  6  2  3  -1  1820.80  1903.98  57.84  o
  6  2  -3  -1  1833.37  1739.69  59.31  o
  6  2  3  0  4969.18  5164.26  111.52  o
  6  2  -3  0  4980.12  5190.92  113.26  o
  6  2  3  1  678.24  791.60  46.63  o
  6  2  -3  1  712.84  701.17  47.17  o
  6  2  3  2  49.00  69.67  26.35  <
  6  2  -3  2  59.48  28.25  24.49  <
  7  2  3  -2  10.58  3.77  16.95  <
  7  2  -3  -2  10.80  -15.06  18.83  <
  7  2  3  -1  109.96  150.66  28.20  o
  7  2  -3  -1  149.93  135.60  26.39  o
  7  2  3  0  5830.39  5956.94  125.65  o
  7  2  -3  0  6350.90  5693.48  137.01  o
  7  2  3  1  22.77  20.71  24.48  <
  7  2  -3  1  5.93  24.48  24.47  <
  7  2  3  2  82.02  126.17  35.74  o
  7  2  -3  2  73.52  73.44  33.90  <
  8  2  3  -2  9.89  -1.88  20.71  <
  8  2  -3  -2  9.46  -5.65  20.71  <
  8  2  3  -1  387.52  367.36  39.61  o
  8  2  -3  -1  405.59  310.85  36.04  o
  8  2  3  0  1888.50  1874.40  71.83  o
  8  2  -3  0  1961.56  1848.16  83.75  o
  8  2  3  1  138.57  99.81  35.81  <
  8  2  -3  1  145.02  94.16  33.94  <
  8  2  3  2  8.56  11.30  30.13  <
  8  2  -3  2  9.67  -11.30  26.36  <
  9  2  3  -2  3.27  39.54  26.35  <
  9  2  -3  -2  4.01  -22.59  24.47  <
  9  2  3  -1  604.82  555.88  51.02  o
  9  2  -3  -1  635.41  559.67  56.74  o
  9  2  3  0  6337.04  6048.89  164.18  o
  9  2  -3  0  6416.37  6193.68  165.46  o
  9  2  3  1  124.76  101.69  35.80  <
  9  2  -3  1  158.49  167.61  41.42  o
  9  2  3  2  18.67  1.88  32.01  <
  9  2  -3  2  18.81  41.42  33.89  <
  10  2  3  -2  3.47  -5.65  26.36  <
  10  2  -3  -2  1.62  3.77  28.24  <
  10  2  3  -1  1371.50  1452.14  78.82  o
  10  2  -3  -1  1393.23  1457.83  80.79  o
  10  2  3  0  1234.06  1248.19  77.24  o
  10  2  -3  0  1148.03  1265.04  78.70  o
  10  2  3  1  1295.65  1159.57  77.87  o
  10  2  -3  1  1301.06  1297.22  81.09  o
  10  2  3  2  195.65  171.38  43.34  o
  10  2  -3  2  184.82  154.43  43.35  o
  11  2  3  -2  9.47  -13.18  32.01  <
  11  2  -3  -2  11.70  -3.77  30.13  <
  11  2  3  -1  426.47  444.56  58.36  o
  11  2  -3  -1  451.54  335.32  52.97  o
  11  2  3  0  2982.91  3057.75  122.27  o
  11  2  -3  0  2849.89  3027.12  119.69  o
  11  2  3  1  816.78  974.24  80.55  o
  11  2  -3  1  814.39  953.51  78.72  o
  11  2  3  2  41.36  -3.77  33.90  <
  11  2  -3  2  49.11  13.18  35.78  <
  12  2  3  -2  5.83  -28.24  37.65  <
  12  2  -3  -2  4.75  -11.30  33.89  <
  12  2  3  -1  104.41  43.31  39.57  <
  12  2  -3  -1  64.25  133.69  43.26  o
  12  2  3  0  31656.90  31221.10  534.46  o
  12  2  -3  0  31711.10  30846.30  537.27  o
  12  2  3  1  48.90  15.06  37.67  <
  12  2  -3  1  46.00  35.78  41.43  <
  12  2  3  2  11.72  -37.66  35.77  <
  12  2  -3  2  8.93  -16.95  37.66  <
  13  2  3  -2  39.33  48.96  43.31  <
  13  2  -3  -2  41.26  -32.01  37.66  <
  13  2  3  -1  832.22  776.34  90.58  o
  13  2  -3  -1  791.75  810.23  82.86  o
  13  2  3  0  2905.06  2622.10  139.29  o
  13  2  -3  0  2764.73  3065.34  130.32  o
  13  2  3  1  238.16  218.46  62.17  o
  13  2  -3  1  235.60  229.76  58.39  o
  13  2  3  2  26.76  58.37  48.95  <
  13  2  -3  2  33.59  -18.83  41.42  <
  14  2  3  -2  14.31  -71.55  39.52  <
  14  2  -3  -2  13.23  28.24  47.07  <
  14  2  3  -1  258.23  276.85  67.78  o
  14  2  -3  -1  251.87  274.96  69.66  o
  14  2  3  0  2720.04  2879.83  150.17  o
  14  2  -3  0  2825.55  2710.22  147.79  o
  14  2  3  1  1188.82  1307.99  122.18  o
  14  2  -3  1  1186.69  1258.99  103.43  o
  14  2  3  2  44.42  28.24  56.49  <
  14  2  -3  2  47.48  -15.06  43.31  <
  15  2  3  -2  81.46  11.30  48.97  <
  15  2  -3  -2  75.63  -20.71  47.08  <
  15  2  3  -1  373.68  278.75  75.44  o
  15  2  -3  -1  352.16  442.60  84.64  o
  15  2  3  0  2251.37  2301.22  148.81  o
  15  2  -3  0  2333.42  1931.65  135.57  o
  15  2  3  1  192.54  269.29  79.03  o
  15  2  -3  1  172.04  263.64  69.59  o
  15  2  3  2  54.53  3.77  60.26  <
  15  2  -3  2  51.15  -5.65  56.49  <
  16  2  3  -2  7.88  -18.83  52.72  <
  16  2  -3  -2  6.13  -41.42  58.36  <
  16  2  3  -1  634.91  768.59  110.91  o
  16  2  -3  -1  660.95  542.55  96.27  o
  16  2  3  0  2969.09  2879.75  175.90  o
  16  2  -3  0  3031.30  2840.25  166.96  o
  16  2  3  1  111.65  186.42  71.51  <
  16  2  -3  1  116.55  144.99  69.66  <
  16  2  3  2  14.24  -47.07  65.90  <
  16  2  -3  2  15.09  -47.07  60.25  <
  17  2  3  -2  71.48  62.14  71.56  <
  17  2  -3  -2  71.05  52.72  73.44  <
  17  2  3  -1  446.34  406.84  92.34  o
  17  2  -3  -1  438.93  608.37  116.56  o
  17  2  3  0  2440.20  2393.64  173.71  o
  17  2  -3  0  2415.19  2321.92  175.75  o
  17  2  3  1  128.81  231.62  86.56  <
  17  2  -3  1  170.85  190.20  84.73  <
  17  2  3  2  12.49  -67.78  67.77  <
  17  2  -3  2  9.73  43.31  79.08  <
  18  2  3  -2  25.75  -60.25  82.84  <
  18  2  -3  -2  28.99  -33.89  69.67  <
  18  2  3  -1  2.56  -80.96  84.72  <
  18  2  -3  -1  1.47  39.54  79.08  <
  1  3  3  -2  38.69  30.13  16.95  <
  1  3  -3  -2  37.22  -3.77  13.19  <
  1  3  3  -1  1491.00  1325.42  48.48  o
  1  3  -3  -1  1457.27  1550.01  52.15  o
  1  3  3  0  7121.12  7077.16  135.83  o
  1  3  -3  0  7240.52  6945.16  144.84  o
  1  3  3  1  1496.84  1526.51  58.29  o
  1  3  -3  1  1457.09  1520.76  61.85  o
  1  3  3  2  29.70  30.13  24.48  <
  1  3  -3  2  21.83  54.61  26.35  <
  2  3  3  -2  18.69  -3.77  13.18  <
  2  3  -3  -2  17.66  -3.77  13.18  <
  2  3  3  -1  4692.38  4619.59  80.87  o
  2  3  -3  -1  4773.15  4572.78  86.47  o
  2  3  3  0  11546.40  11372.50  168.06  o
  2  3  -3  0  11578.40  11192.80  193.99  o
  2  3  3  1  832.67  887.87  41.16  o
  2  3  -3  1  820.49  833.19  47.07  o
  2  3  3  2  254.87  220.37  32.09  o
  2  3  -3  2  259.18  244.85  39.58  o
  3  3  3  -2  34.96  3.77  13.19  <
  3  3  -3  -2  31.96  18.83  16.95  <
  3  3  3  -1  856.45  933.39  37.22  o
  3  3  -3  -1  865.08  876.84  43.31  o
  3  3  3  0  4139.17  4172.15  86.74  o
  3  3  -3  0  4071.35  4184.99  101.07  o
  3  3  3  1  1762.30  1806.23  60.05  o
  3  3  -3  1  1720.64  1974.10  67.98  o
  3  3  3  2  64.06  99.80  26.33  o
  3  3  -3  2  63.30  62.14  28.25  <
  4  3  3  -2  25.80  -5.65  15.07  <
  4  3  -3  -2  25.19  15.06  16.95  <
  4  3  3  -1  642.82  701.16  43.11  o
  4  3  -3  -1  615.29  618.20  33.91  o
  4  3  3  0  14226.00  13952.80  221.80  o
  4  3  -3  0  14322.80  13668.40  240.90  o
  4  3  3  1  99.28  54.61  26.40  <
  4  3  -3  1  91.89  50.84  26.39  <
  4  3  3  2  9.68  -37.66  22.58  <
  4  3  -3  2  10.67  11.30  24.48  <
  5  3  3  -2  38.69  7.53  18.84  <
  5  3  -3  -2  38.96  20.71  16.95  <
  5  3  3  -1  720.72  904.77  48.16  o
  5  3  -3  -1  836.54  697.55  43.99  o
  5  3  3  0  7001.12  7166.34  144.21  o
  5  3  -3  0  6748.31  6975.76  135.67  o
  5  3  3  1  1354.17  1427.74  73.18  o
  5  3  -3  1  1355.23  1316.47  64.34  o
  5  3  3  2  21.53  52.72  32.00  <
  5  3  -3  2  18.51  7.53  26.36  <
  6  3  3  -2  16.15  -11.30  18.83  <
  6  3  -3  -2  14.63  -26.36  18.82  <
  6  3  3  -1  1622.38  1687.12  63.71  o
  6  3  -3  -1  1626.00  1651.27  65.88  o
  6  3  3  0  8138.30  8272.23  181.03  o
  6  3  -3  0  8091.76  7971.16  165.18  o
  6  3  3  1  1522.55  1627.84  76.76  o
  6  3  -3  1  1506.07  1458.05  77.58  o
  6  3  3  2  209.01  203.40  43.32  o
  6  3  -3  2  204.37  220.35  50.83  o
  7  3  3  -2  59.98  -1.88  20.73  <
  7  3  -3  -2  61.47  7.53  22.61  <
  7  3  3  -1  995.95  889.87  64.51  o
  7  3  -3  -1  980.61  935.10  64.28  o
  7  3  3  0  4601.52  4509.81  135.25  o
  7  3  -3  0  4564.17  4199.12  133.81  o
  7  3  3  1  901.09  985.74  69.43  o
  7  3  -3  1  865.69  887.69  73.43  o
  7  3  3  2  72.70  64.02  41.43  <
  7  3  -3  2  70.38  122.40  43.28  <
  8  3  3  -2  2.08  15.06  26.36  <
  8  3  -3  -2  1.96  58.37  31.99  <
  8  3  3  -1  541.73  563.35  60.24  o
  8  3  -3  -1  560.13  501.18  56.67  o
  8  3  3  0  5247.12  5339.11  152.56  o
  8  3  -3  0  5082.70  5251.02  151.86  o
  8  3  3  1  217.55  258.01  48.91  o
  8  3  -3  1  223.66  209.05  47.10  o
  8  3  3  2  17.24  9.41  37.66  <
  8  3  -3  2  14.60  33.89  39.54  <
  9  3  3  -2  12.76  -33.89  28.24  <
  9  3  -3  -2  12.28  -18.83  26.36  <
  9  3  3  -1  1330.17  1299.23  77.45  o
  9  3  -3  -1  1329.53  1361.46  79.05  o
  9  3  3  0  4766.15  4872.68  150.47  o
  9  3  -3  0  4930.45  4600.97  152.26  o
  9  3  3  1  721.47  648.17  75.54  o
  9  3  -3  1  665.27  589.73  66.13  o
  9  3  3  2  23.42  0.00  39.54  <
  9  3  -3  2  22.33  41.42  41.42  <
  10  3  3  -2  24.58  52.72  33.88  <
  10  3  -3  -2  27.52  18.83  32.01  <
  10  3  3  -1  1589.92  1601.20  88.59  o
  10  3  -3  -1  1604.57  1682.32  90.15  o
  10  3  3  0  1809.06  1884.35  99.60  o
  10  3  -3  0  1882.24  2110.85  104.46  o
  10  3  3  1  425.51  399.33  64.09  o
  10  3  -3  1  407.08  354.12  54.72  o
  10  3  3  2  132.24  154.41  54.59  <
  10  3  -3  2  134.33  201.49  56.44  o
  11  3  3  -2  67.52  15.06  35.79  <
  11  3  -3  -2  61.26  33.89  35.79  <
  11  3  3  -1  7.59  24.48  37.66  <
  11  3  -3  -1  4.66  11.30  33.89  <
  11  3  3  0  2462.50  2506.16  126.21  o
  11  3  -3  0  2551.53  2232.70  114.98  o
  11  3  3  1  1176.77  1392.90  99.13  o
  11  3  -3  1  1221.31  1259.12  103.55  o
  11  3  3  2  41.26  -15.06  45.19  <
  11  3  -3  2  38.90  24.48  45.19  <
  12  3  3  -2  31.23  35.78  37.66  <
  12  3  -3  -2  31.76  24.48  37.66  <
  12  3  3  -1  385.74  295.72  66.04  o
  12  3  -3  -1  376.08  388.01  64.02  o
  12  3  3  0  10629.10  10468.70  280.95  o
  12  3  -3  0  10759.50  10209.50  264.30  o
  12  3  3  1  48.43  7.53  43.31  <
  12  3  -3  1  43.79  1.88  45.19  <
  12  3  3  2  11.18  -3.77  50.84  <
  12  3  -3  2  13.47  35.78  52.72  <
  13  3  3  -2  5.73  20.71  37.66  <
  13  3  -3  -2  6.66  -13.18  41.42  <
  13  3  3  -1  246.22  171.38  60.33  <
  13  3  -3  -1  234.07  118.65  49.06  <
  13  3  3  0  2542.44  2500.06  137.95  o
  13  3  -3  0  2420.88  2154.55  125.79  o
  13  3  3  1  900.81  812.11  98.18  o
  13  3  -3  1  927.66  876.19  99.99  o
  13  3  3  2  52.49  -18.83  54.61  <
  13  3  -3  2  47.09  -28.24  48.96  <
  14  3  3  -2  15.00  77.20  56.47  <
  14  3  -3  -2  13.00  22.59  48.95  <
  14  3  3  -1  210.64  199.62  65.92  o
  14  3  -3  -1  207.00  201.50  62.15  o
  14  3  3  0  3908.89  3611.14  186.68  o
  14  3  -3  0  3808.69  3935.68  167.29  o
  14  3  3  1  1329.18  1270.36  118.91  o
  14  3  -3  1  1341.91  1064.92  115.71  o
  14  3  3  2  93.00  96.03  64.02  <
  14  3  -3  2  91.34  58.37  64.03  <
  15  3  3  -2  49.66  18.83  58.38  <
  15  3  -3  -2  48.52  65.90  56.48  <
  15  3  3  -1  117.71  118.63  71.56  <
  15  3  -3  -1  104.75  178.89  71.51  <
  15  3  3  0  2208.13  2461.26  163.10  o
  15  3  -3  0  2249.84  2385.89  171.14  o
  15  3  3  1  440.20  412.49  94.21  o
  15  3  -3  1  458.11  329.62  81.15  o
  15  3  3  2  34.24  22.60  73.44  <
  15  3  -3  2  33.62  56.49  69.66  <
  16  3  3  -2  9.60  28.24  60.25  <
  16  3  -3  -2  8.00  20.71  58.37  <
  16  3  3  -1  1163.96  1083.59  133.98  o
  16  3  -3  -1  1139.84  1062.84  124.56  o
  16  3  3  0  437.78  301.36  92.43  o
  16  3  -3  0  378.92  436.95  107.29  o
  16  3  3  1  80.32  197.71  88.44  <
  16  3  -3  1  81.97  105.45  84.73  <
  17  3  3  -2  11.06  -33.89  65.90  <
  17  3  -3  -2  9.48  97.91  80.94  <
  17  3  3  -1  43.81  71.55  79.08  <
  17  3  -3  -1  57.68  60.25  80.97  <
  1  4  3  -2  18.03  18.83  20.71  <
  1  4  -3  -2  20.59  -3.77  16.95  <
  1  4  3  -1  900.76  812.50  49.42  o
  1  4  -3  -1  882.26  908.62  50.77  o
  1  4  3  0  7809.00  8185.44  158.41  o
  1  4  -3  0  8231.44  7769.32  174.90  o
  1  4  3  1  834.91  1002.60  61.51  o
  1  4  -3  1  845.71  840.54  64.10  o
  1  4  3  2  229.24  310.75  48.84  o
  1  4  -3  2  237.89  263.67  45.16  o
  2  4  3  -2  22.07  -11.30  15.06  <
  2  4  -3  -2  21.58  -1.88  16.95  <
  2  4  3  -1  5111.59  5011.69  90.58  o
  2  4  -3  -1  5101.06  4988.88  118.79  o
  2  4  3  0  340.66  331.52  35.81  o
  2  4  -3  0  209.00  365.37  50.59  o
  2  4  3  1  83.26  71.56  26.37  <
  2  4  -3  1  85.51  116.75  47.06  <
  2  4  3  2  77.13  129.93  41.39  o
  2  4  -3  2  81.28  73.44  37.67  <
  3  4  3  -2  13.71  16.95  16.95  <
  3  4  -3  -2  11.54  26.36  22.59  <
  3  4  3  -1  1121.10  1146.43  52.65  o
  3  4  -3  -1  1143.59  1123.84  56.67  o
  3  4  3  0  8422.86  7880.44  150.54  o
  3  4  -3  0  7454.68  8363.58  179.33  o
  3  4  3  1  565.85  450.28  47.42  o
  3  4  -3  1  547.94  546.35  60.29  o
  3  4  3  2  158.35  265.53  50.72  o
  3  4  -3  2  162.40  190.20  48.94  o
  4  4  3  -2  3.20  24.48  22.59  <
  4  4  -3  -2  3.39  -11.30  18.83  <
  4  4  3  -1  199.26  197.75  33.90  o
  4  4  -3  -1  214.84  226.01  35.77  o
  4  4  3  0  6212.33  6076.63  156.89  o
  4  4  -3  0  6152.69  6389.05  166.36  o
  4  4  3  1  85.40  90.39  35.77  <
  4  4  -3  1  85.16  75.32  35.78  <
  4  4  3  2  3.15  5.65  33.89  <
  4  4  -3  2  3.65  -28.24  33.89  <
  5  4  3  -2  18.52  16.95  24.48  <
  5  4  -3  -2  15.46  9.41  22.60  <
  5  4  3  -1  1251.78  1161.57  68.30  o
  5  4  -3  -1  1265.86  1229.47  62.42  o
  5  4  3  0  11055.30  11392.10  233.88  o
  5  4  -3  0  11063.60  11190.30  234.67  o
  5  4  3  1  805.33  851.75  79.01  o
  5  4  -3  1  784.79  940.29  82.47  o
  5  4  3  2  150.47  158.18  56.49  <
  5  4  -3  2  158.42  158.19  48.96  o
  6  4  3  -2  5.81  -26.36  24.47  <
  6  4  -3  -2  6.81  41.42  30.12  <
  6  4  3  -1  2480.24  2403.58  94.93  o
  6  4  -3  -1  2496.29  2339.43  97.33  o
  6  4  3  0  1295.91  1125.59  89.22  o
  6  4  -3  0  1057.38  1198.83  88.10  o
  6  4  3  1  46.27  3.77  39.55  <
  6  4  -3  1  48.21  79.08  43.30  <
  6  4  3  2  134.46  33.90  45.23  <
  6  4  -3  2  141.24  105.46  45.22  <
  7  4  3  -2  0.95  9.41  30.13  <
  7  4  -3  -2  1.01  -24.48  28.24  <
  7  4  3  -1  997.90  972.60  75.48  o
  7  4  -3  -1  994.33  895.32  71.97  o
  7  4  3  0  11243.20  11800.10  269.74  o
  7  4  -3  0  11888.10  11167.40  280.36  o
  7  4  3  1  557.65  619.79  79.00  o
  7  4  -3  1  551.24  454.01  68.00  o
  7  4  3  2  233.59  340.87  65.78  o
  7  4  -3  2  224.41  207.16  56.51  o
  8  4  3  -2  23.65  16.95  32.01  <
  8  4  -3  -2  23.31  11.30  32.01  <
  8  4  3  -1  404.46  444.54  62.09  o
  8  4  -3  -1  411.46  325.88  58.53  o
  8  4  3  0  215.14  248.59  56.46  o
  8  4  -3  0  327.22  65.92  43.57  <
  8  4  3  1  75.61  86.62  48.95  <
  8  4  -3  1  77.03  7.53  43.32  <
  8  4  3  2  12.45  13.18  47.07  <
  8  4  -3  2  13.76  -11.30  43.31  <
  9  4  3  -2  7.05  -30.13  32.00  <
  9  4  -3  -2  7.62  1.88  33.89  <
  9  4  3  -1  1990.30  1809.12  106.49  o
  9  4  -3  -1  1897.04  1784.44  104.27  o
  9  4  3  0  4423.38  4312.00  165.25  o
  9  4  -3  0  4368.23  4224.84  165.45  o
  9  4  3  1  529.88  691.33  84.44  o
  9  4  -3  1  604.59  489.80  73.69  o
  9  4  3  2  116.47  137.46  56.48  <
  9  4  -3  2  122.14  212.79  60.19  o
  10  4  3  -2  22.35  -9.41  37.66  <
  10  4  -3  -2  19.13  45.19  37.65  <
  10  4  3  -1  2804.82  2586.11  127.69  o
  10  4  -3  -1  2817.84  2978.78  133.09  o
  10  4  3  0  250.04  96.05  54.73  <
  10  4  -3  0  173.10  129.94  58.41  <
  10  4  3  1  180.53  177.02  58.38  o
  10  4  -3  1  185.81  160.07  60.28  <
  10  4  3  2  140.07  86.62  60.28  <
  10  4  -3  2  130.14  139.35  58.37  <
  11  4  3  -2  3.78  48.96  43.30  <
  11  4  -3  -2  4.72  -11.30  35.77  <
  11  4  3  -1  311.30  308.88  65.92  o
  11  4  -3  -1  331.33  355.97  65.89  o
  11  4  3  0  1773.44  1563.19  115.82  o
  11  4  -3  0  1509.44  1749.49  119.77  o
  11  4  3  1  1060.23  1168.37  112.78  o
  11  4  -3  1  1093.25  1021.41  107.60  o
  11  4  3  2  120.06  65.91  58.40  <
  11  4  -3  2  129.98  52.73  60.29  <
  12  4  3  -2  8.51  -48.96  41.41  <
  12  4  -3  -2  8.49  -32.01  39.54  <
  12  4  3  -1  171.37  199.61  62.12  o
  12  4  -3  -1  154.51  158.18  58.37  <
  12  4  3  0  7550.26  7585.95  244.05  o
  12  4  -3  0  7483.17  6966.20  240.87  o
  12  4  3  1  15.98  -16.95  48.95  <
  12  4  -3  1  14.64  -35.78  47.07  <
  12  4  3  2  2.50  18.83  56.49  <
  12  4  -3  2  1.25  -41.42  50.83  <
  13  4  3  -2  1.90  32.01  50.83  <
  13  4  -3  -2  2.02  5.65  47.07  <
  13  4  3  -1  1395.83  1338.31  118.93  o
  13  4  -3  -1  1402.77  1366.60  122.63  o
  13  4  3  0  4091.16  4523.56  190.01  o
  13  4  -3  0  4381.04  4192.06  190.05  o
  13  4  3  1  660.88  461.53  85.10  o
  13  4  -3  1  659.49  506.74  90.67  o
  13  4  3  2  134.76  58.38  69.70  <
  13  4  -3  2  141.91  13.18  67.82  <
  14  4  3  -2  3.10  -18.83  50.84  <
  14  4  -3  -2  3.13  45.19  52.71  <
  14  4  3  -1  501.02  438.88  86.73  o
  14  4  -3  -1  508.74  563.20  94.10  o
  14  4  3  0  26.39  154.40  71.50  <
  14  4  -3  0  33.41  80.97  67.77  <
  14  4  3  1  100.32  37.66  62.16  <
  14  4  -3  1  92.70  45.19  69.68  <
  15  4  3  -2  57.84  54.61  65.90  <
  15  4  -3  -2  62.52  50.84  60.26  <
  15  4  3  -1  813.31  538.83  102.19  o
  15  4  -3  -1  814.43  849.69  114.86  o
  15  4  3  0  2728.03  2478.96  176.42  o
  15  4  -3  0  2694.86  2394.00  159.73  o
  16  4  3  -2  32.41  54.60  69.66  <
  16  4  -3  -2  32.48  -56.49  73.43  <
  16  4  3  -1  363.54  555.59  112.78  o
  16  4  -3  -1  378.00  267.44  94.26  <
  1  5  3  -2  6.23  -3.77  24.48  <
  1  5  -3  -2  6.18  -7.53  28.24  <
  1  5  3  -1  4090.22  4246.78  113.81  o
  1  5  -3  -1  4136.78  4195.93  116.67  o
  1  5  3  0  950.93  946.06  79.17  o
  1  5  -3  0  847.29  942.20  76.96  o
  1  5  3  1  1668.00  1438.75  89.66  o
  1  5  -3  1  1621.85  1713.99  99.52  o
  1  5  3  2  129.81  192.07  58.33  o
  1  5  -3  2  126.89  203.37  62.08  o
  2  5  3  -2  11.32  -15.06  22.59  <
  2  5  -3  -2  10.83  -7.53  32.01  <
  2  5  3  -1  2696.98  2815.10  103.00  o
  2  5  -3  -1  2804.21  2679.45  106.60  o
  2  5  3  0  204.80  318.27  52.57  o
  2  5  -3  0  234.93  246.71  50.83  o
  2  5  3  1  35.58  16.95  43.31  <
  2  5  -3  1  46.64  48.96  41.42  <
  2  5  3  2  48.65  43.31  45.19  <
  2  5  -3  2  49.19  13.18  45.20  <
  3  5  3  -2  8.81  32.01  30.12  <
  3  5  -3  -2  7.10  1.88  26.36  <
  3  5  3  -1  2823.93  2860.65  105.48  o
  3  5  -3  -1  2851.20  2856.95  109.48  o
  3  5  3  0  1951.12  2110.76  102.90  o
  3  5  -3  0  2207.14  1992.39  114.24  o
  3  5  3  1  1653.97  1836.55  100.97  o
  3  5  -3  1  1635.30  1791.27  110.60  o
  3  5  3  2  123.24  218.44  62.07  o
  3  5  -3  2  124.50  94.15  64.04  <
  4  5  3  -2  27.01  5.65  28.25  <
  4  5  -3  -2  23.91  -9.41  32.01  <
  4  5  3  -1  17.43  -3.77  30.13  <
  4  5  -3  -1  16.84  33.89  33.89  <
  4  5  3  0  2409.08  2605.96  117.75  o
  4  5  -3  0  2463.47  2383.41  147.54  o
  4  5  3  1  180.08  116.76  49.01  <
  4  5  -3  1  173.12  65.91  50.90  <
  4  5  3  2  6.24  52.72  48.95  <
  4  5  -3  2  7.05  54.60  50.83  <
  5  5  3  -2  38.39  0.00  33.90  <
  5  5  -3  -2  41.11  -3.77  33.90  <
  5  5  3  -1  3381.12  3301.89  128.99  o
  5  5  -3  -1  3372.23  3290.52  129.01  o
  5  5  3  0  2907.51  2807.08  136.48  o
  5  5  -3  0  2904.50  2841.05  130.62  o
  5  5  3  1  1355.84  1434.50  107.17  o
  5  5  -3  1  1382.06  1425.10  118.62  o
  5  5  3  2  190.74  148.77  60.29  <
  5  5  -3  2  189.81  227.86  69.65  o
  6  5  3  -2  1.13  5.65  33.89  <
  6  5  -3  -2  0.94  -28.24  35.77  <
  6  5  3  -1  1288.27  1370.49  95.83  o
  6  5  -3  -1  1236.26  1428.86  95.40  o
  6  5  3  0  80.39  146.88  63.99  <
  6  5  -3  0  133.40  84.74  45.22  <
  6  5  3  1  8.36  -5.65  43.31  <
  6  5  -3  1  12.71  -37.66  41.42  <
  6  5  3  2  75.27  137.46  60.22  <
  6  5  -3  2  71.00  7.53  48.97  <
  7  5  3  -2  35.99  26.36  37.66  <
  7  5  -3  -2  34.30  -39.54  33.88  <
  7  5  3  -1  2887.89  2969.41  131.66  o
  7  5  -3  -1  2914.28  3011.01  131.56  o
  7  5  3  0  3036.60  2720.16  161.93  o
  7  5  -3  0  2826.45  3095.27  143.84  o
  7  5  3  1  942.03  732.99  104.07  o
  7  5  -3  1  934.10  725.45  90.93  o
  7  5  3  2  186.83  216.56  67.77  o
  7  5  -3  2  181.05  124.29  65.94  <
  8  5  3  -2  32.30  45.19  43.30  <
  8  5  -3  -2  37.01  0.00  39.54  <
  8  5  3  -1  460.39  452.07  75.36  o
  8  5  -3  -1  451.24  389.91  67.91  o
  8  5  3  0  987.69  829.14  109.64  o
  8  5  -3  0  894.08  1074.03  103.16  o
  8  5  3  1  24.34  33.89  60.25  <
  8  5  -3  1  35.62  33.89  54.61  <
  8  5  3  2  38.32  3.77  54.61  <
  8  5  -3  2  33.81  32.01  56.49  <
  9  5  3  -2  33.05  -28.24  39.54  <
  9  5  -3  -2  31.05  86.62  47.05  <
  9  5  3  -1  2242.70  2197.64  124.71  o
  9  5  -3  -1  2218.43  1939.17  120.11  o
  9  5  3  0  2018.41  1767.08  144.19  o
  9  5  -3  0  2049.14  1712.43  123.92  o
  9  5  3  1  779.08  680.12  116.97  o
  9  5  -3  1  744.05  712.13  96.15  o
  9  5  3  2  91.56  114.86  71.55  <
  9  5  -3  2  87.44  47.08  64.03  <
  10  5  3  -2  17.59  -13.18  45.19  <
  10  5  -3  -2  15.29  0.00  41.42  <
  10  5  3  -1  1310.70  1426.84  116.49  o
  10  5  -3  -1  1378.10  1328.90  113.25  o
  10  5  3  0  161.30  184.55  75.31  <
  10  5  -3  0  198.49  222.21  69.66  o
  10  5  3  1  54.36  26.36  73.44  <
  10  5  -3  1  60.91  -50.84  50.83  <
  10  5  3  2  21.62  -7.53  64.02  <
  10  5  -3  2  23.77  114.86  69.64  <
  11  5  3  -2  11.06  -24.48  50.84  <
  11  5  -3  -2  12.94  -73.43  41.40  <
  11  5  3  -1  906.46  966.60  107.26  o
  11  5  -3  -1  878.23  748.01  94.50  o
  11  5  3  0  432.93  352.21  94.26  o
  11  5  -3  0  553.65  395.57  81.23  o
  11  5  3  1  1559.62  1315.74  158.91  o
  11  5  -3  1  1522.15  1779.41  153.81  o
  12  5  3  -2  13.97  48.96  52.71  <
  12  5  -3  -2  15.21  26.36  52.72  <
  12  5  3  -1  34.96  56.49  62.13  <
  12  5  -3  -1  60.98  33.89  56.49  <
  12  5  3  0  1793.20  1700.59  164.29  o
  12  5  -3  0  1867.85  1608.29  142.24  o
  12  5  3  1  194.80  227.86  94.14  <
  12  5  -3  1  193.33  112.99  81.01  <
  13  5  3  -2  86.46  -22.60  54.61  <
  13  5  -3  -2  83.35  5.65  56.50  <
  13  5  3  -1  1218.89  1136.39  124.59  o
  13  5  -3  -1  1229.25  1164.67  126.43  o
  13  5  3  0  999.45  1015.60  150.71  o
  13  5  -3  0  964.80  840.35  120.83  o
  14  5  3  -2  25.11  48.96  64.02  <
  14  5  -3  -2  26.64  3.77  62.14  <
  14  5  3  -1  475.85  246.74  83.11  <
  14  5  -3  -1  470.46  489.71  103.57  o
  1  6  3  -2  72.53  56.49  37.67  <
  1  6  -3  -2  72.66  92.27  37.65  <
  1  6  3  -1  1459.27  1508.17  94.05  o
  1  6  -3  -1  1440.30  1760.76  119.47  o
  1  6  3  0  943.67  1258.71  114.10  o
  1  6  -3  0  1017.25  1177.76  112.64  o
  1  6  3  1  473.75  391.78  114.98  o
  1  6  -3  1  464.31  491.61  101.68  o
  1  6  3  2  253.74  220.34  86.65  <
  1  6  -3  2  244.72  286.25  161.94  <
  2  6  3  -2  21.08  28.24  35.77  <
  2  6  -3  -2  18.24  5.65  33.89  <
  2  6  3  -1  971.86  945.98  98.06  o
  2  6  -3  -1  956.28  925.24  96.18  o
  2  6  3  0  837.21  791.34  101.84  o
  2  6  -3  0  793.06  881.74  116.64  o
  2  6  3  1  746.95  719.67  207.26  o
  2  6  -3  1  726.25  725.31  145.06  o
  2  6  3  2  45.26  186.41  135.53  <
  2  6  -3  2  48.19  79.08  90.38  <
  3  6  3  -2  108.90  32.01  43.34  <
  3  6  -3  -2  99.97  37.66  43.33  <
  3  6  3  -1  1582.71  1723.22  101.19  o
  3  6  -3  -1  1601.76  1523.40  126.58  o
  3  6  3  0  3225.68  3341.16  165.50  o
  3  6  -3  0  2981.64  3453.76  188.43  o
  3  6  3  1  533.94  495.40  158.26  o
  3  6  -3  1  504.13  297.61  111.31  <
  3  6  3  2  157.96  254.22  386.02  <
  3  6  -3  2  160.02  -9.42  103.59  <
  4  6  3  -2  1.88  15.06  35.77  <
  4  6  -3  -2  1.87  54.60  54.59  <
  4  6  3  -1  57.23  28.24  43.32  <
  4  6  -3  -1  48.20  80.97  54.59  <
  4  6  3  0  1903.38  2176.07  138.45  o
  4  6  -3  0  1869.57  1885.62  131.93  o
  4  6  3  1  13.95  30.13  97.91  <
  4  6  -3  1  17.33  1.88  69.67  <
  4  6  3  2  0.63  30.13  141.21  <
  4  6  -3  2  0.85  30.13  88.49  <
  5  6  3  -2  120.81  52.73  43.34  <
  5  6  -3  -2  112.89  82.86  52.74  <
  5  6  3  -1  1473.97  1602.36  120.21  o
  5  6  -3  -1  1482.04  1427.05  120.82  o
  5  6  3  0  2534.46  2194.06  144.83  o
  5  6  -3  0  2499.26  2463.77  151.07  o
  5  6  3  1  551.07  553.79  111.13  o
  5  6  -3  1  564.55  476.57  107.48  o
  5  6  3  2  196.15  248.58  120.50  <
  5  6  -3  2  208.11  256.11  156.28  <
  6  6  3  -2  59.13  32.01  45.20  <
  6  6  -3  -2  60.10  35.78  43.32  <
  6  6  3  -1  486.41  544.36  82.78  o
  6  6  -3  -1  526.77  525.54  88.53  o
  6  6  3  0  1202.54  1044.07  121.00  o
  6  6  -3  0  1121.69  998.78  117.13  o
  6  6  3  1  790.28  702.72  109.43  o
  6  6  -3  1  793.77  751.71  113.11  o
  7  6  3  -2  29.62  103.56  64.00  <
  7  6  -3  -2  29.04  24.48  47.07  <
  7  6  3  -1  1843.46  2166.53  138.26  o
  7  6  -3  -1  1891.37  2028.96  127.65  o
  7  6  3  0  1588.43  1862.49  146.16  o
  7  6  -3  0  1805.98  1870.33  144.96  o
  7  6  3  1  181.36  154.42  79.11  <
  7  6  -3  1  194.34  30.13  77.26  <
  8  6  3  -2  2.91  -35.77  54.60  <
  8  6  -3  -2  2.48  -33.89  45.18  <
  8  6  3  -1  176.23  209.03  71.54  <
  8  6  -3  -1  189.42  161.95  62.16  <
  8  6  3  0  584.72  644.22  107.28  o
  8  6  -3  0  652.28  548.18  120.70  o
  8  6  3  1  99.02  92.27  79.09  <
  8  6  -3  1  92.15  109.21  86.61  <
  9  6  3  -2  30.46  -50.84  52.71  <
  9  6  -3  -2  34.12  3.77  54.61  <
  9  6  3  -1  2174.64  1882.16  168.76  o
  9  6  -3  -1  2064.21  2134.70  135.48  o
  9  6  3  0  1302.11  1575.57  157.63  o
  9  6  -3  0  1352.41  1266.53  158.50  o
  10  6  3  -2  12.02  1.88  62.14  <
  10  6  -3  -2  12.58  -15.06  56.49  <
  10  6  3  -1  555.15  388.03  107.55  o
  10  6  -3  -1  546.03  566.97  101.69  o
  11  6  3  -2  41.98  47.07  73.43  <
  11  6  -3  -2  40.13  -30.13  48.95  <
  11  6  3  -1  1102.43  1166.43  156.28  o
  11  6  -3  -1  1065.19  959.12  126.47  o
  12  6  3  -2  5.34  94.14  79.06  <
  12  6  -3  -2  4.02  -15.06  62.13  <
  1  7  3  -2  59.95  56.49  69.67  <
  1  7  -3  -2  58.63  105.45  64.00  <
  1  7  3  -1  3116.04  3285.66  195.53  o
  1  7  -3  -1  3117.36  2772.34  180.76  o
  1  7  3  0  10.66  33.89  75.31  <
  1  7  -3  0  11.17  -33.89  86.61  <
  2  7  3  -2  8.04  -35.78  114.86  <
  2  7  -3  -2  9.65  11.30  75.32  <
  2  7  3  -1  952.46  830.94  207.40  o
  2  7  -3  -1  950.08  1232.27  186.08  o
  2  7  3  0  330.37  461.42  114.76  o
  2  7  -3  0  338.91  171.38  107.44  <
  3  7  3  -2  10.28  -20.71  64.02  <
  3  7  -3  -2  11.91  122.39  80.93  <
  3  7  3  -1  2714.42  2358.29  387.37  o
  3  7  -3  -1  2744.04  2856.43  229.81  o
  4  7  3  -2  13.52  -18.83  96.03  <
  4  7  -3  -2  11.07  -48.96  56.48  <
  4  7  3  -1  10.09  18.83  96.03  <
  4  7  -3  -1  13.79  7.53  88.50  <
  5  7  3  -2  83.48  43.31  65.91  <
  5  7  -3  -2  80.99  90.38  62.14  <
  5  7  3  -1  2155.57  2185.66  220.56  o
  5  7  -3  -1  2207.29  2185.74  237.68  o
  6  7  3  -2  23.87  -41.42  58.36  <
  6  7  -3  -2  25.78  41.42  60.25  <
  6  7  3  -1  870.62  917.54  126.14  o
  6  7  -3  -1  862.94  495.51  184.96  <
  7  7  3  -2  60.67  -13.18  64.02  <
  7  7  -3  -2  60.85  79.08  75.31  <
  8  7  3  -2  52.93  26.36  69.67  <
  8  7  -3  -2  62.57  32.01  75.32  <
  0  0  4  0  56582.90  51679.70  1180.10  o
  0  0  -4  0  56651.60  52827.30  1147.42  o
  0  0  4  1  157.68  175.23  24.46  o
  0  0  -4  1  169.98  186.55  32.01  o
  0  0  4  2  21.33  -16.95  18.83  <
  0  0  -4  2  19.68  -15.06  18.83  <
  1  0  4  1  10.66  7.53  11.30  <
  1  0  -4  1  10.66  13.18  15.06  <
  1  0  4  2  8.97  -3.77  15.06  <
  1  0  -4  2  9.59  -15.06  13.18  <
  2  0  4  0  24775.60  25758.60  392.09  o
  2  0  -4  0  24779.40  26654.90  375.54  o
  2  0  4  1  115.25  97.95  15.10  o
  2  0  -4  1  114.08  118.67  18.83  o
  2  0  4  2  1.16  7.53  16.95  <
  2  0  -4  2  1.18  -16.95  11.29  <
  3  0  4  1  102.31  113.01  15.05  o
  3  0  -4  1  95.49  80.99  15.09  o
  3  0  4  2  1.81  -3.77  11.30  <
  3  0  -4  2  1.66  9.41  16.95  <
  4  0  4  0  239898.00  267679.00  3150.09  o
  4  0  -4  0  239866.00  249645.00  3464.18  o
  4  0  4  1  74.12  86.63  15.05  o
  4  0  -4  1  71.88  67.80  15.07  o
  4  0  4  2  6.73  -5.65  11.30  <
  4  0  -4  2  6.19  16.95  13.18  <
  5  0  4  1  54.21  48.96  13.19  o
  5  0  -4  1  47.44  30.13  13.19  <
  5  0  4  2  13.78  -13.18  13.18  <
  5  0  -4  2  16.33  16.95  15.06  <
  6  0  4  0  467.56  427.82  39.70  o
  6  0  -4  0  473.95  424.06  35.97  o
  6  0  4  1  14.83  -18.83  15.06  <
  6  0  -4  1  13.03  11.30  13.18  <
  6  0  4  2  22.68  13.18  16.95  <
  6  0  -4  2  19.21  -5.65  15.06  <
  7  0  4  1  100.26  97.93  22.60  o
  7  0  -4  1  96.41  97.93  18.83  o
  7  0  4  2  0.00  -24.48  15.06  <
  7  0  -4  2  0.12  20.71  16.94  <
  8  0  4  0  49873.30  48709.60  995.54  o
  8  0  -4  0  50312.50  48836.00  725.77  o
  8  0  4  1  3.97  -11.30  16.94  <
  8  0  -4  1  2.49  -11.30  15.06  <
  8  0  4  2  32.58  7.53  20.72  <
  8  0  -4  2  31.07  15.06  22.60  <
  9  0  4  1  513.56  623.68  48.64  o
  9  0  -4  1  528.26  525.71  39.58  o
  9  0  4  2  59.04  -9.42  20.73  <
  9  0  -4  2  62.67  58.37  26.37  <
  10  0  4  0  10018.50  9897.88  306.07  o
  10  0  -4  0  9963.01  9939.14  230.93  o
  10  0  4  1  480.46  376.80  45.47  o
  10  0  -4  1  453.60  457.80  39.55  o
  10  0  4  2  58.04  56.49  28.25  <
  10  0  -4  2  62.00  -7.53  28.26  <
  11  0  4  1  188.62  218.46  47.05  o
  11  0  -4  1  169.44  190.21  43.29  o
  11  0  4  2  36.99  30.13  33.90  <
  11  0  -4  2  38.63  33.89  33.89  <
  12  0  4  0  34653.00  33485.40  795.37  o
  12  0  -4  0  34603.10  34257.90  925.78  o
  12  0  4  1  1105.40  1159.29  84.63  o
  12  0  -4  1  1128.86  1266.77  95.67  o
  12  0  4  2  0.43  54.60  41.41  <
  12  0  -4  2  0.51  -18.83  32.01  <
  13  0  4  1  158.17  75.33  43.37  <
  13  0  -4  1  144.74  126.17  54.62  <
  13  0  4  2  25.35  15.06  41.43  <
  13  0  -4  2  24.19  13.18  45.19  <
  14  0  4  0  5561.11  4902.53  247.74  o
  14  0  -4  0  5532.34  5507.88  306.64  o
  14  0  4  1  48.33  5.65  45.20  <
  14  0  -4  1  50.31  9.41  47.08  <
  14  0  4  2  57.68  5.65  45.20  <
  14  0  -4  2  53.93  -24.48  45.19  <
  15  0  4  1  168.25  239.16  71.50  o
  15  0  -4  1  169.31  316.37  78.96  o
  15  0  4  2  50.95  47.07  54.61  <
  15  0  -4  2  43.18  -1.88  52.73  <
  16  0  4  0  14172.40  14407.80  565.74  o
  16  0  -4  0  14211.90  15002.20  575.30  o
  16  0  4  1  319.47  436.94  92.15  o
  16  0  -4  1  305.98  209.05  79.18  <
  16  0  4  2  8.52  26.36  60.25  <
  16  0  -4  2  8.36  -33.89  58.37  <
  17  0  4  1  374.42  325.83  92.34  o
  17  0  -4  1  369.45  327.71  90.45  o
  17  0  4  2  26.08  24.48  82.85  <
  17  0  -4  2  30.68  16.95  67.79  <
  18  0  4  0  29.57  -73.43  92.25  <
  18  0  -4  0  16.39  1.88  97.91  <
  18  0  4  1  430.72  800.48  150.23  o
  18  0  -4  1  424.80  485.93  109.17  o
  18  0  4  2  76.66  -48.96  82.85  <
  18  0  -4  2  62.62  41.43  75.32  <
  0  1  4  -2  18.17  18.83  16.95  <
  0  1  -4  -2  17.02  -9.42  15.06  <
  0  1  4  -1  178.84  133.78  30.21  o
  0  1  -4  -1  171.71  154.51  28.29  o
  0  1  4  0  11376.10  11617.00  259.49  o
  0  1  -4  0  11371.20  11996.60  193.70  o
  0  1  4  1  2351.90  2305.36  81.87  o
  0  1  -4  1  2279.39  2297.29  58.57  o
  0  1  4  2  22.62  15.06  15.07  <
  0  1  -4  2  23.31  16.95  16.95  <
  1  1  4  -2  1.28  -1.88  11.30  <
  1  1  -4  -2  1.29  -20.71  13.17  <
  1  1  4  -1  270.49  252.57  24.55  o
  1  1  -4  -1  277.71  260.12  22.67  o
  1  1  4  0  6396.96  6480.66  106.38  o
  1  1  -4  0  6440.58  6293.06  104.39  o
  1  1  4  1  116.79  143.15  20.67  o
  1  1  -4  1  120.10  150.68  16.88  o
  1  1  4  2  24.19  28.25  13.18  <
  1  1  -4  2  25.41  1.88  11.30  <
  2  1  4  -2  2.37  -5.65  9.41  <
  2  1  -4  -2  2.26  -5.65  13.18  <
  2  1  4  -1  78.31  90.40  18.82  o
  2  1  -4  -1  78.13  58.39  15.09  o
  2  1  4  0  1482.12  1545.40  48.65  o
  2  1  -4  0  1494.07  1611.66  42.36  o
  2  1  4  1  13.09  18.83  15.06  <
  2  1  -4  1  16.23  13.18  11.30  <
  2  1  4  2  23.35  -15.06  11.30  <
  2  1  -4  2  23.56  -1.88  13.18  <
  3  1  4  -2  4.17  -9.41  11.30  <
  3  1  -4  -2  4.06  11.30  11.30  <
  3  1  4  -1  378.00  377.01  22.63  o
  3  1  -4  -1  357.86  386.41  22.49  o
  3  1  4  0  3920.39  3315.55  67.94  o
  3  1  -4  0  3320.43  3918.16  67.76  o
  3  1  4  1  304.26  280.76  20.81  o
  3  1  -4  1  307.29  329.75  28.20  o
  3  1  4  2  16.05  1.88  11.30  <
  3  1  -4  2  15.82  28.24  15.06  <
  4  1  4  -2  57.55  30.13  13.20  <
  4  1  -4  -2  56.32  32.01  13.20  <
  4  1  4  -1  19.18  -1.88  11.30  <
  4  1  -4  -1  10.14  3.77  11.30  <
  4  1  4  0  3568.27  3581.90  64.37  o
  4  1  -4  0  3610.55  3534.78  75.04  o
  4  1  4  1  2401.70  2398.25  53.04  o
  4  1  -4  1  2432.38  2292.40  54.63  o
  4  1  4  2  91.06  80.98  20.73  o
  4  1  -4  2  94.22  94.16  20.72  o
  5  1  4  -2  2.79  1.88  11.30  <
  5  1  -4  -2  3.28  5.65  11.30  <
  5  1  4  -1  252.16  256.22  26.36  o
  5  1  -4  -1  239.59  233.60  20.74  o
  5  1  4  0  2856.23  3038.51  67.99  o
  5  1  -4  0  3018.44  2942.91  70.96  o
  5  1  4  1  276.33  312.73  30.05  o
  5  1  -4  1  281.94  342.88  29.97  o
  5  1  4  2  17.23  -1.88  16.95  <
  5  1  -4  2  14.60  16.95  16.95  <
  6  1  4  -2  3.08  -3.77  15.06  <
  6  1  -4  -2  3.24  16.95  13.18  <
  6  1  4  -1  310.31  316.52  30.13  o
  6  1  -4  -1  345.57  290.16  26.55  o
  6  1  4  0  3944.71  4140.71  88.68  o
  6  1  -4  0  3892.79  4199.11  85.30  o
  6  1  4  1  40.95  39.54  18.83  <
  6  1  -4  1  46.59  47.08  18.83  <
  6  1  4  2  10.54  13.18  18.83  <
  6  1  -4  2  11.24  -15.06  16.94  <
  7  1  4  -2  2.70  -5.65  18.83  <
  7  1  -4  -2  2.70  5.65  13.18  <
  7  1  4  -1  457.65  427.75  35.90  o
  7  1  -4  -1  437.83  433.39  35.82  o
  7  1  4  0  6950.79  7839.33  125.52  o
  7  1  -4  0  7652.50  7251.53  148.43  o
  7  1  4  1  68.28  52.73  22.61  <
  7  1  -4  1  51.60  71.56  24.47  <
  7  1  4  2  12.71  0.00  20.71  <
  7  1  -4  2  12.24  -16.95  18.83  <
  8  1  4  -2  15.82  -5.65  20.71  <
  8  1  -4  -2  17.45  9.41  15.07  <
  8  1  4  -1  64.39  73.44  24.47  o
  8  1  -4  -1  70.49  50.84  24.49  <
  8  1  4  0  3297.33  3521.14  88.53  o
  8  1  -4  0  3338.42  3379.44  92.32  o
  8  1  4  1  1037.08  1029.57  56.61  o
  8  1  -4  1  1018.14  1003.14  52.87  o
  8  1  4  2  1.47  -11.30  22.59  <
  8  1  -4  2  0.94  -3.77  24.48  <
  9  1  4  -2  8.32  -39.54  20.70  <
  9  1  -4  -2  8.92  -7.53  16.95  <
  9  1  4  -1  290.92  440.77  42.96  o
  9  1  -4  -1  335.05  282.56  32.15  o
  9  1  4  0  2120.27  1857.98  79.15  o
  9  1  -4  0  1865.05  2121.61  75.57  o
  9  1  4  1  236.68  299.47  39.43  o
  9  1  -4  1  242.83  180.81  39.64  o
  9  1  4  2  25.10  18.83  26.36  <
  9  1  -4  2  26.52  24.48  30.13  <
  10  1  4  -2  30.23  -16.95  26.36  <
  10  1  -4  -2  28.70  -3.77  20.72  <
  10  1  4  -1  294.59  290.07  41.45  o
  10  1  -4  -1  286.41  275.00  39.58  o
  10  1  4  0  11406.40  11318.70  213.12  o
  10  1  -4  0  11359.20  11232.20  240.17  o
  10  1  4  1  693.35  674.62  58.47  o
  10  1  -4  1  681.85  599.23  60.53  o
  10  1  4  2  14.35  -37.66  30.12  <
  10  1  -4  2  13.17  -45.19  28.23  <
  11  1  4  -2  4.15  -30.13  30.12  <
  11  1  -4  -2  3.80  3.77  28.24  <
  11  1  4  -1  353.68  438.89  60.12  o
  11  1  -4  -1  350.65  320.22  49.03  o
  11  1  4  0  2292.74  1963.13  87.06  o
  11  1  -4  0  2070.93  2287.24  102.56  o
  11  1  4  1  232.56  231.65  48.97  o
  11  1  -4  1  232.19  310.75  50.73  o
  11  1  4  2  3.97  1.88  30.13  <
  11  1  -4  2  3.49  -24.48  28.24  <
  12  1  4  -2  78.40  -9.42  33.91  <
  12  1  -4  -2  70.12  1.88  39.55  <
  12  1  4  -1  8.04  5.65  35.78  <
  12  1  -4  -1  7.10  35.78  39.54  <
  12  1  4  0  1262.14  1238.63  100.00  o
  12  1  -4  0  1275.47  1232.99  86.89  o
  12  1  4  1  2102.23  2296.22  115.99  o
  12  1  -4  1  2018.95  2228.12  104.51  o
  12  1  4  2  30.41  26.36  37.66  <
  12  1  -4  2  28.50  18.83  37.66  <
  13  1  4  -2  1.63  16.95  39.54  <
  13  1  -4  -2  1.75  20.71  43.30  <
  13  1  4  -1  578.74  621.69  79.04  o
  13  1  -4  -1  503.90  565.14  79.01  o
  13  1  4  0  868.78  1000.62  97.65  o
  13  1  -4  0  894.84  949.77  105.40  o
  13  1  4  1  162.59  148.77  54.62  <
  13  1  -4  1  186.08  120.53  50.90  <
  13  1  4  2  23.97  30.13  45.19  <
  13  1  -4  2  20.60  3.77  37.66  <
  14  1  4  -2  49.55  -16.95  45.19  <
  14  1  -4  -2  52.34  16.95  48.96  <
  14  1  4  -1  489.49  421.95  73.57  o
  14  1  -4  -1  477.64  518.01  88.47  o
  14  1  4  0  9872.15  9821.80  292.90  o
  14  1  -4  0  9765.54  9473.41  276.15  o
  14  1  4  1  102.61  60.26  52.74  <
  14  1  -4  1  98.85  111.10  54.60  <
  14  1  4  2  75.79  -11.30  56.50  <
  14  1  -4  2  81.22  -65.91  43.29  <
  15  1  4  -2  3.14  -1.88  50.84  <
  15  1  -4  -2  2.83  22.59  54.60  <
  15  1  4  -1  337.87  372.92  75.29  o
  15  1  -4  -1  325.46  254.26  77.29  o
  15  1  4  0  858.96  964.72  107.16  o
  15  1  -4  0  955.95  847.96  117.05  o
  15  1  4  1  110.88  178.89  71.52  <
  15  1  -4  1  83.51  82.85  60.26  <
  15  1  4  2  4.55  -18.83  52.72  <
  15  1  -4  2  3.87  -65.90  50.82  <
  16  1  4  -2  14.62  41.42  64.02  <
  16  1  -4  -2  16.97  5.65  58.37  <
  16  1  4  -1  391.34  472.75  95.96  o
  16  1  -4  -1  400.11  233.55  84.91  <
  16  1  4  0  86.65  -56.49  54.60  <
  16  1  -4  0  84.24  82.85  73.44  <
  16  1  4  1  1799.39  2072.15  146.09  o
  16  1  -4  1  1848.71  1938.36  159.99  o
  16  1  4  2  0.79  -7.53  60.25  <
  16  1  -4  2  1.33  -73.43  54.59  <
  17  1  4  -2  2.99  -15.06  64.02  <
  17  1  -4  -2  2.89  -7.53  64.02  <
  17  1  4  -1  160.56  190.19  75.31  <
  17  1  -4  -1  184.84  193.96  86.62  <
  17  1  4  0  425.30  216.60  96.22  <
  17  1  -4  0  395.69  369.15  103.61  o
  17  1  4  1  123.94  225.97  80.91  <
  17  1  -4  1  139.93  101.69  80.99  <
  17  1  4  2  15.35  86.61  73.42  <
  17  1  -4  2  17.30  0.00  67.79  <
  18  1  4  -2  19.33  22.59  75.32  <
  18  1  -4  -2  17.89  92.26  77.18  <
  18  1  4  -1  30.16  -15.06  80.97  <
  18  1  -4  -1  37.24  -37.66  73.43  <
  18  1  4  0  7439.23  8003.33  354.46  o
  18  1  -4  0  7402.52  7546.94  307.60  o
  18  1  4  1  209.73  92.28  97.97  <
  18  1  -4  1  204.69  173.25  92.29  <
  0  2  4  -2  73.43  47.08  24.50  <
  0  2  -4  -2  72.18  48.97  16.97  <
  0  2  4  -1  80.51  97.93  20.70  o
  0  2  -4  -1  122.65  92.29  22.64  o
  0  2  4  0  8239.66  7420.37  209.56  o
  0  2  -4  0  8268.75  7601.15  147.84  o
  0  2  4  1  269.20  363.59  46.92  o
  0  2  -4  1  264.52  318.37  30.00  o
  0  2  4  2  339.31  299.55  45.29  o
  0  2  -4  2  322.85  254.33  37.81  o
  1  2  4  -2  13.30  9.41  13.18  <
  1  2  -4  -2  13.31  -3.77  11.30  <
  1  2  4  -1  98.98  71.57  15.11  o
  1  2  -4  -1  97.10  86.63  16.97  o
  1  2  4  0  3534.84  3757.42  69.01  o
  1  2  -4  0  3654.71  3712.86  80.92  o
  1  2  4  1  1248.57  1247.58  39.64  o
  1  2  -4  1  1298.55  1304.32  47.15  o
  1  2  4  2  25.05  7.53  15.07  <
  1  2  -4  2  28.88  15.06  18.83  <
  2  2  4  -2  6.49  -15.06  13.18  <
  2  2  -4  -2  6.67  18.83  13.18  <
  2  2  4  -1  9.90  -1.88  11.30  <
  2  2  -4  -1  15.00  -5.65  13.18  <
  2  2  4  0  12518.30  14785.60  145.47  o
  2  2  -4  0  12551.90  14388.30  185.04  o
  2  2  4  1  46.61  43.31  16.95  <
  2  2  -4  1  45.56  67.79  18.81  o
  2  2  4  2  5.08  3.77  15.06  <
  2  2  -4  2  4.48  -5.65  16.95  <
  3  2  4  -2  11.23  1.88  11.30  <
  3  2  -4  -2  10.69  13.18  15.06  <
  3  2  4  -1  203.77  229.82  20.65  o
  3  2  -4  -1  212.70  216.64  24.48  o
  3  2  4  0  3103.64  3465.25  59.20  o
  3  2  -4  0  3181.74  3308.51  80.11  o
  3  2  4  1  2052.78  2071.16  47.03  o
  3  2  -4  1  2161.20  1861.75  61.21  o
  3  2  4  2  12.05  7.53  15.06  <
  3  2  -4  2  11.48  7.53  16.95  <
  4  2  4  -2  35.10  -3.77  13.19  <
  4  2  -4  -2  37.04  11.30  13.19  <
  4  2  4  -1  2323.91  2378.19  58.07  o
  4  2  -4  -1  2316.25  2340.31  54.59  o
  4  2  4  0  152536.00  152186.00  1898.93  o
  4  2  -4  0  152586.00  154970.00  1853.96  o
  4  2  4  1  337.67  340.99  33.90  o
  4  2  -4  1  328.52  269.40  30.29  o
  4  2  4  2  265.99  197.78  28.40  o
  4  2  -4  2  267.29  199.67  28.40  o
  5  2  4  -2  24.28  -16.95  13.18  <
  5  2  -4  -2  26.21  -3.77  13.18  <
  5  2  4  -1  32.88  35.78  16.95  <
  5  2  -4  -1  31.99  30.13  18.83  <
  5  2  4  0  771.70  720.21  43.60  o
  5  2  -4  0  744.89  765.42  39.49  o
  5  2  4  1  1305.77  1337.67  54.51  o
  5  2  -4  1  1189.94  1256.32  50.50  o
  5  2  4  2  37.16  50.84  24.47  <
  5  2  -4  2  43.10  24.48  20.72  <
  6  2  4  -2  9.80  3.77  15.06  <
  6  2  -4  -2  9.11  1.88  18.83  <
  6  2  4  -1  442.39  454.11  37.65  o
  6  2  -4  -1  455.32  382.52  36.02  o
  6  2  4  0  3214.87  3383.47  89.17  o
  6  2  -4  0  3193.65  3442.02  92.23  o
  6  2  4  1  42.03  43.31  24.48  <
  6  2  -4  1  41.65  58.37  24.47  <
  6  2  4  2  16.10  -7.53  22.60  <
  6  2  -4  2  17.73  -22.60  20.71  <
  7  2  4  -2  20.73  5.65  16.95  <
  7  2  -4  -2  21.18  3.77  18.83  <
  7  2  4  -1  75.93  -3.77  18.86  <
  7  2  -4  -1  49.58  39.54  22.60  <
  7  2  4  0  1239.84  1146.82  57.10  o
  7  2  -4  0  1134.91  1190.02  58.17  o
  7  2  4  1  672.41  650.17  50.96  o
  7  2  -4  1  644.80  734.95  54.34  o
  7  2  4  2  14.71  35.78  30.12  <
  7  2  -4  2  16.39  37.66  30.12  <
  8  2  4  -2  14.18  22.60  22.59  <
  8  2  -4  -2  14.81  3.77  20.71  <
  8  2  4  -1  326.22  314.58  39.58  o
  8  2  -4  -1  329.82  357.91  41.38  o
  8  2  4  0  19839.90  18743.30  313.86  o
  8  2  -4  0  20244.60  19253.40  349.46  o
  8  2  4  1  277.63  344.68  48.85  o
  8  2  -4  1  282.04  250.51  43.37  o
  8  2  4  2  218.25  226.00  43.31  o
  8  2  -4  2  216.24  229.77  43.30  o
  9  2  4  -2  12.09  18.83  26.36  <
  9  2  -4  -2  12.75  -22.59  22.59  <
  9  2  4  -1  262.04  237.32  39.59  o
  9  2  -4  -1  257.37  271.22  43.30  o
  9  2  4  0  1193.80  1029.52  70.44  o
  9  2  -4  0  1082.14  1117.99  71.49  o
  9  2  4  1  677.44  738.66  69.55  o
  9  2  -4  1  675.16  785.76  67.51  o
  9  2  4  2  94.84  33.90  37.68  <
  9  2  -4  2  101.12  26.36  33.93  <
  10  2  4  -2  14.72  3.77  26.36  <
  10  2  -4  -2  12.26  -9.41  28.24  <
  10  2  4  -1  1238.10  1231.27  75.45  o
  10  2  -4  -1  1219.08  1278.38  77.05  o
  10  2  4  0  5188.90  5037.00  152.84  o
  10  2  -4  0  5133.22  5260.13  156.03  o
  10  2  4  1  25.79  50.84  35.77  <
  10  2  -4  1  22.82  -11.30  30.13  <
  10  2  4  2  29.61  3.77  37.66  <
  10  2  -4  2  26.28  -1.88  33.89  <
  11  2  4  -2  58.01  88.50  35.76  <
  11  2  -4  -2  63.93  37.66  35.79  <
  11  2  4  -1  350.05  246.75  47.25  o
  11  2  -4  -1  326.28  229.79  49.11  o
  11  2  4  0  2498.57  2425.64  111.80  o
  11  2  -4  0  2655.10  2533.64  112.14  o
  11  2  4  1  750.31  700.95  79.26  o
  11  2  -4  1  790.47  740.55  75.51  o
  11  2  4  2  36.17  26.36  39.54  <
  11  2  -4  2  30.39  3.77  35.78  <
  12  2  4  -2  16.18  28.24  41.42  <
  12  2  -4  -2  15.67  71.55  37.64  <
  12  2  4  -1  2360.47  2426.94  112.86  o
  12  2  -4  -1  2386.35  2710.09  115.07  o
  12  2  4  0  16937.00  16296.40  343.09  o
  12  2  -4  0  16868.80  16654.90  339.48  o
  12  2  4  1  791.04  755.58  86.76  o
  12  2  -4  1  789.16  789.50  77.25  o
  12  2  4  2  86.35  92.27  50.84  <
  12  2  -4  2  84.65  48.96  43.32  <
  13  2  4  -2  21.33  -1.88  41.43  <
  13  2  -4  -2  19.40  -26.36  39.54  <
  13  2  4  -1  216.20  214.69  58.38  o
  13  2  -4  -1  205.14  154.43  50.89  o
  13  2  4  0  686.59  538.83  85.05  o
  13  2  -4  0  740.09  644.37  77.47  o
  13  2  4  1  197.00  143.12  56.54  <
  13  2  -4  1  209.88  244.82  56.46  o
  13  2  4  2  27.04  30.13  47.07  <
  13  2  -4  2  23.44  73.43  48.94  <
  14  2  4  -2  36.52  15.06  47.08  <
  14  2  -4  -2  39.94  22.60  48.96  <
  14  2  4  -1  520.97  546.28  90.38  o
  14  2  -4  -1  546.24  510.50  81.06  o
  14  2  4  0  1179.62  838.71  106.36  o
  14  2  -4  0  1164.34  944.24  106.11  o
  14  2  4  1  68.71  141.22  58.33  <
  14  2  -4  1  68.89  32.01  47.08  <
  14  2  4  2  53.26  82.85  60.25  <
  14  2  -4  2  55.41  16.95  52.73  <
  15  2  4  -2  16.69  33.89  50.84  <
  15  2  -4  -2  18.52  52.72  62.13  <
  15  2  4  -1  209.57  201.50  71.57  <
  15  2  -4  -1  262.25  169.49  64.11  <
  15  2  4  0  1326.93  1308.09  130.11  o
  15  2  -4  0  1310.94  1279.80  128.25  o
  15  2  4  1  251.26  288.14  79.06  o
  15  2  -4  1  252.74  224.11  71.59  o
  15  2  4  2  38.04  -41.42  60.25  <
  15  2  -4  2  41.77  -3.77  62.14  <
  16  2  4  -2  32.36  16.95  60.26  <
  16  2  -4  -2  33.46  18.83  60.26  <
  16  2  4  -1  406.47  274.99  81.13  o
  16  2  -4  -1  378.93  297.58  88.60  o
  16  2  4  0  7350.57  7482.37  275.48  o
  16  2  -4  0  7426.88  7592.61  298.05  o
  16  2  4  1  470.66  393.66  90.51  o
  16  2  -4  1  468.16  548.11  97.83  o
  16  2  4  2  52.11  37.66  65.91  <
  16  2  -4  2  57.78  -15.06  71.56  <
  17  2  4  -2  9.87  45.19  82.84  <
  17  2  -4  -2  10.66  33.89  75.31  <
  17  2  4  -1  407.70  386.11  96.08  o
  17  2  -4  -1  385.91  391.75  109.23  o
  17  2  4  0  745.48  602.85  111.37  o
  17  2  -4  0  689.86  751.65  122.35  o
  17  2  4  1  298.97  218.46  86.69  <
  17  2  -4  1  263.59  154.43  82.93  <
  17  2  4  2  34.92  43.31  77.20  <
  17  2  -4  2  36.67  67.79  80.96  <
  18  2  4  -2  64.89  -80.97  82.84  <
  18  2  -4  -2  51.82  39.54  84.73  <
  18  2  4  -1  1278.37  1603.80  187.77  o
  18  2  -4  -1  1262.99  1230.63  160.26  o
  0  3  4  -2  5.82  9.41  24.48  <
  0  3  -4  -2  5.08  30.13  16.94  <
  0  3  4  -1  3138.19  2917.85  102.09  o
  0  3  -4  -1  3050.41  3159.72  87.95  o
  0  3  4  0  4068.30  4040.04  140.44  o
  0  3  -4  0  4173.09  4116.51  129.36  o
  0  3  4  1  1557.18  1462.42  83.48  o
  0  3  -4  1  1445.04  1388.61  73.87  o
  0  3  4  2  92.75  52.73  37.68  <
  0  3  -4  2  107.52  -1.88  32.04  <
  1  3  4  -2  0.46  5.65  13.18  <
  1  3  -4  -2  0.20  3.77  15.06  <
  1  3  4  -1  601.21  565.47  34.09  o
  1  3  -4  -1  629.97  614.51  37.77  o
  1  3  4  0  18505.50  17969.30  256.38  o
  1  3  -4  0  18008.70  18718.50  269.99  o
  1  3  4  1  89.55  96.04  20.71  o
  1  3  -4  1  116.61  128.06  24.47  o
  1  3  4  2  167.66  150.66  28.27  o
  1  3  -4  2  168.74  231.64  33.79  o
  2  3  4  -2  2.82  11.30  15.06  <
  2  3  -4  -2  2.83  -18.83  13.18  <
  2  3  4  -1  59.87  75.32  16.93  o
  2  3  -4  -1  60.40  64.02  20.71  o
  2  3  4  0  371.64  324.04  30.29  o
  2  3  -4  0  330.20  314.60  35.83  o
  2  3  4  1  22.25  11.30  18.83  <
  2  3  -4  1  25.21  -15.06  18.83  <
  2  3  4  2  15.40  35.78  24.47  <
  2  3  -4  2  15.52  -7.53  22.60  <
  3  3  4  -2  11.04  20.71  13.18  <
  3  3  -4  -2  9.78  13.18  16.95  <
  3  3  4  -1  1556.21  1474.32  42.31  o
  3  3  -4  -1  1526.41  1608.27  56.02  o
  3  3  4  0  9363.01  8887.84  138.35  o
  3  3  -4  0  9122.33  9186.22  170.83  o
  3  3  4  1  18.03  16.95  20.71  <
  3  3  -4  1  12.03  16.95  22.59  <
  3  3  4  2  164.68  128.06  28.30  o
  3  3  -4  2  155.73  122.41  35.81  o
  4  3  4  -2  62.21  62.14  20.71  <
  4  3  -4  -2  64.42  60.26  20.72  <
  4  3  4  -1  2317.23  2373.47  65.60  o
  4  3  -4  -1  2343.42  2352.78  67.95  o
  4  3  4  0  225.93  516.08  42.56  o
  4  3  -4  0  439.79  329.71  37.97  o
  4  3  4  1  418.49  416.34  39.57  o
  4  3  -4  1  453.57  455.92  43.32  o
  4  3  4  2  83.96  60.26  24.50  <
  4  3  -4  2  90.98  56.49  30.15  <
  5  3  4  -2  9.12  -7.53  18.83  <
  5  3  -4  -2  7.88  1.88  16.95  <
  5  3  4  -1  179.02  203.40  30.09  o
  5  3  -4  -1  183.94  173.27  28.27  o
  5  3  4  0  7532.61  7959.05  150.14  o
  5  3  -4  0  7858.06  7268.01  161.55  o
  5  3  4  1  137.96  173.26  31.97  o
  5  3  -4  1  142.67  161.96  33.87  o
  5  3  4  2  155.65  96.04  37.71  <
  5  3  -4  2  139.04  133.71  37.67  o
  6  3  4  -2  24.58  16.95  22.60  <
  6  3  -4  -2  25.36  -7.53  20.71  <
  6  3  4  -1  202.37  135.60  32.11  o
  6  3  -4  -1  247.33  205.30  32.10  o
  6  3  4  0  938.98  995.34  56.29  o
  6  3  -4  0  976.58  935.06  58.62  o
  6  3  4  1  41.75  39.54  32.01  <
  6  3  -4  1  38.12  73.44  33.88  <
  6  3  4  2  6.06  9.41  33.89  <
  6  3  -4  2  5.98  -24.48  30.12  <
  7  3  4  -2  7.41  13.18  24.48  <
  7  3  -4  -2  8.22  0.00  22.60  <
  7  3  4  -1  1677.44  1901.99  70.16  o
  7  3  -4  -1  1761.24  1532.32  69.37  o
  7  3  4  0  12193.00  12630.40  242.35  o
  7  3  -4  0  12825.00  11905.70  260.24  o
  7  3  4  1  77.36  112.98  43.29  <
  7  3  -4  1  52.51  96.03  39.52  <
  7  3  4  2  123.37  111.10  43.32  <
  7  3  -4  2  106.96  92.27  41.44  <
  8  3  4  -2  3.09  -20.71  22.59  <
  8  3  -4  -2  3.04  18.83  28.24  <
  8  3  4  -1  2765.08  2614.41  99.31  o
  8  3  -4  -1  2698.31  2882.42  104.46  o
  8  3  4  0  1329.26  1289.78  85.02  o
  8  3  -4  0  1387.27  1225.75  79.90  o
  8  3  4  1  839.65  776.42  79.32  o
  8  3  -4  1  799.84  717.97  75.59  o
  8  3  4  2  22.13  1.88  37.66  <
  8  3  -4  2  22.03  37.66  39.54  <
  9  3  4  -2  39.88  45.19  30.13  <
  9  3  -4  -2  46.81  45.19  33.89  <
  9  3  4  -1  638.90  601.06  64.16  o
  9  3  -4  -1  619.83  546.41  64.24  o
  9  3  4  0  8626.65  8349.10  228.81  o
  9  3  -4  0  8387.88  8873.14  211.24  o
  9  3  4  1  261.49  274.97  56.48  o
  9  3  -4  1  306.48  288.17  58.41  o
  9  3  4  2  132.49  33.90  43.35  <
  9  3  -4  2  142.40  180.78  52.70  o
  10  3  4  -2  3.68  -5.65  30.13  <
  10  3  -4  -2  4.25  -28.24  32.00  <
  10  3  4  -1  1466.63  1442.56  90.62  o
  10  3  -4  -1  1383.87  1521.63  88.01  o
  10  3  4  0  5613.85  5272.40  180.69  o
  10  3  -4  0  5574.53  5435.01  169.69  o
  10  3  4  1  528.34  499.21  73.52  o
  10  3  -4  1  526.77  431.39  67.99  o
  10  3  4  2  21.03  -22.60  39.54  <
  10  3  -4  2  21.26  52.72  45.18  <
  11  3  4  -2  14.91  20.71  35.77  <
  11  3  -4  -2  13.84  -33.89  33.89  <
  11  3  4  -1  1157.38  1294.97  91.87  o
  11  3  -4  -1  1128.75  1402.37  89.41  o
  11  3  4  0  8021.44  7617.04  231.24  o
  11  3  -4  0  7782.69  7913.10  214.90  o
  11  3  4  1  340.53  350.32  67.79  o
  11  3  -4  1  339.82  335.25  65.93  o
  11  3  4  2  43.66  32.01  47.08  <
  11  3  -4  2  46.05  -9.41  41.43  <
  12  3  4  -2  42.36  7.53  41.43  <
  12  3  -4  -2  38.51  26.36  43.31  <
  12  3  4  -1  699.45  734.78  88.47  o
  12  3  -4  -1  737.74  589.73  71.95  o
  12  3  4  0  652.25  570.84  79.29  o
  12  3  -4  0  660.15  714.02  88.43  o
  12  3  4  1  1132.11  996.98  102.14  o
  12  3  -4  1  1068.64  883.86  94.72  o
  12  3  4  2  38.45  50.84  52.72  <
  12  3  -4  2  38.46  28.24  48.96  <
  13  3  4  -2  48.73  16.95  47.08  <
  13  3  -4  -2  37.55  -7.53  39.54  <
  13  3  4  -1  563.14  521.81  77.31  o
  13  3  -4  -1  544.37  465.29  71.73  o
  13  3  4  0  1931.72  1993.36  126.10  o
  13  3  -4  0  2097.53  1903.09  123.43  o
  13  3  4  1  232.12  161.96  62.20  <
  13  3  -4  1  227.04  218.45  67.80  o
  13  3  4  2  59.64  18.83  54.61  <
  13  3  -4  2  58.66  152.52  62.09  <
  14  3  4  -2  9.61  -22.59  48.95  <
  14  3  -4  -2  8.46  -3.77  45.19  <
  14  3  4  -1  134.54  212.79  73.39  <
  14  3  -4  -1  167.79  37.66  47.14  <
  14  3  4  0  3895.12  3986.87  192.14  o
  14  3  -4  0  3851.01  3599.58  175.16  o
  14  3  4  1  154.98  265.52  73.35  o
  14  3  -4  1  151.63  274.93  77.11  o
  14  3  4  2  61.73  -52.72  58.36  <
  14  3  -4  2  64.75  43.31  62.14  <
  15  3  4  -2  3.26  -3.77  56.49  <
  15  3  -4  -2  4.42  -22.59  54.60  <
  15  3  4  -1  1447.74  1519.29  139.28  o
  15  3  -4  -1  1437.73  1526.82  144.90  o
  15  3  4  0  3317.42  3354.22  215.03  o
  15  3  -4  0  3416.20  2956.16  194.52  o
  15  3  4  1  100.26  54.61  69.68  <
  15  3  -4  1  72.06  122.39  69.65  <
  15  3  4  2  75.58  60.26  73.44  <
  15  3  -4  2  69.94  -18.83  64.03  <
  16  3  4  -2  28.05  -9.41  56.49  <
  16  3  -4  -2  33.32  -24.48  52.72  <
  16  3  4  -1  327.45  173.27  81.10  <
  16  3  -4  -1  277.76  214.69  86.68  <
  16  3  4  0  441.82  495.36  99.76  o
  16  3  -4  0  503.59  295.72  98.15  o
  16  3  4  1  973.84  1085.30  139.21  o
  16  3  -4  1  1052.56  979.84  145.23  o
  17  3  4  -2  62.52  58.37  73.44  <
  17  3  -4  -2  68.46  -3.77  67.79  <
  17  3  4  -1  390.38  156.32  90.57  <
  17  3  -4  -1  350.10  359.72  107.34  o
  0  4  4  -2  2.62  -37.66  22.58  <
  0  4  -4  -2  2.15  20.71  28.24  <
  0  4  4  -1  441.58  563.31  67.57  o
  0  4  -4  -1  541.54  435.26  54.89  o
  0  4  4  0  85.03  65.91  33.91  <
  0  4  -4  0  135.36  94.16  43.34  <
  0  4  4  1  221.25  337.12  62.00  o
  0  4  -4  1  233.25  274.97  60.22  o
  0  4  4  2  334.10  167.63  56.68  <
  0  4  -4  2  330.85  252.39  60.37  o
  1  4  4  -2  22.01  3.77  16.95  <
  1  4  -4  -2  22.99  16.95  20.71  <
  1  4  4  -1  2199.64  2011.02  62.13  o
  1  4  -4  -1  2270.05  2022.54  68.17  o
  1  4  4  0  522.27  585.94  52.57  o
  1  4  -4  0  601.07  576.57  49.07  o
  1  4  4  1  3594.65  3598.80  109.59  o
  1  4  -4  1  3507.49  3568.23  97.69  o
  1  4  4  2  12.09  5.65  30.13  <
  1  4  -4  2  13.49  11.30  30.13  <
  2  4  4  -2  5.39  -7.53  16.95  <
  2  4  -4  -2  5.71  9.41  20.71  <
  2  4  4  -1  29.74  15.06  20.72  <
  2  4  -4  -1  37.10  32.01  24.48  <
  2  4  4  0  988.96  1068.82  56.16  o
  2  4  -4  0  978.36  1100.85  65.45  o
  2  4  4  1  37.49  30.13  28.25  <
  2  4  -4  1  36.15  45.19  33.89  <
  2  4  4  2  3.40  -18.83  30.12  <
  2  4  -4  2  3.64  20.71  35.77  <
  3  4  4  -2  21.61  -7.53  18.83  <
  3  4  -4  -2  23.99  16.95  22.60  <
  3  4  4  -1  2539.18  2500.85  70.25  o
  3  4  -4  -1  2535.99  2262.84  86.99  o
  3  4  4  0  1900.46  1945.44  67.59  o
  3  4  -4  0  1813.65  1890.53  88.25  o
  3  4  4  1  3251.41  3306.17  118.62  o
  3  4  -4  1  3301.89  3140.09  112.70  o
  3  4  4  2  16.34  -9.41  33.89  <
  3  4  -4  2  15.33  13.18  39.54  <
  4  4  4  -2  21.83  18.83  22.60  <
  4  4  -4  -2  25.55  28.24  24.48  <
  4  4  4  -1  1916.68  1819.30  63.05  o
  4  4  -4  -1  1822.27  1683.23  76.33  o
  4  4  4  0  21408.50  21963.20  339.48  o
  4  4  -4  0  21463.10  21187.80  425.78  o
  4  4  4  1  79.74  20.71  32.03  <
  4  4  -4  1  68.42  13.18  37.67  <
  4  4  4  2  198.26  86.63  41.52  <
  4  4  -4  2  209.30  177.03  52.76  o
  5  4  4  -2  34.87  11.30  22.60  <
  5  4  -4  -2  41.55  37.66  24.48  <
  5  4  4  -1  1337.01  1391.72  73.27  o
  5  4  -4  -1  1328.30  1318.16  71.71  o
  5  4  4  0  2182.30  2085.42  91.19  o
  5  4  -4  0  2095.86  2047.49  92.75  o
  5  4  4  1  3039.11  3263.35  121.19  o
  5  4  -4  1  3143.84  3184.36  126.27  o
  5  4  4  2  15.76  3.77  39.54  <
  5  4  -4  2  16.05  94.15  52.69  <
  6  4  4  -2  8.92  13.18  28.24  <
  6  4  -4  -2  8.02  -28.24  22.59  <
  6  4  4  -1  500.23  429.54  58.55  o
  6  4  -4  -1  484.92  457.79  58.46  o
  6  4  4  0  1029.02  1202.54  91.78  o
  6  4  -4  0  1102.88  1014.13  88.87  o
  6  4  4  1  37.82  52.72  41.42  <
  6  4  -4  1  38.31  18.83  39.55  <
  6  4  4  2  19.84  5.65  39.54  <
  6  4  -4  2  21.91  -16.95  39.54  <
  7  4  4  -2  28.94  60.25  37.65  <
  7  4  -4  -2  31.44  -9.41  30.13  <
  7  4  4  -1  1592.12  1616.33  92.30  o
  7  4  -4  -1  1591.25  1682.34  93.88  o
  7  4  4  0  1725.83  1661.62  100.25  o
  7  4  -4  0  1790.57  1554.22  99.13  o
  7  4  4  1  2510.78  2745.90  125.11  o
  7  4  -4  1  2482.43  2308.01  117.94  o
  7  4  4  2  0.17  28.24  43.30  <
  7  4  -4  2  0.51  58.37  43.29  <
  8  4  4  -2  10.19  -26.36  33.89  <
  8  4  -4  -2  9.88  -48.96  28.23  <
  8  4  4  -1  127.11  128.05  43.31  <
  8  4  -4  -1  170.18  56.50  39.62  <
  8  4  4  0  1102.22  1193.10  95.83  o
  8  4  -4  0  1179.07  1136.63  94.39  o
  8  4  4  1  17.50  -5.65  43.31  <
  8  4  -4  1  12.30  -32.01  37.65  <
  8  4  4  2  142.36  111.10  62.16  <
  8  4  -4  2  139.96  107.34  52.75  <
  9  4  4  -2  64.53  13.18  39.55  <
  9  4  -4  -2  61.52  35.78  41.43  <
  9  4  4  -1  765.02  951.54  91.85  o
  9  4  -4  -1  743.12  781.95  80.92  o
  9  4  4  0  596.16  616.03  79.08  o
  9  4  -4  0  606.65  433.30  68.15  o
  9  4  4  1  1945.27  1836.95  111.76  o
  9  4  -4  1  1901.94  1818.03  115.40  o
  9  4  4  2  34.11  26.36  56.49  <
  9  4  -4  2  32.87  65.90  48.95  <
  10  4  4  -2  0.38  -9.41  39.54  <
  10  4  -4  -2  0.67  11.30  37.66  <
  10  4  4  -1  900.03  1013.81  99.58  o
  10  4  -4  -1  935.63  821.63  88.86  o
  10  4  4  0  2918.52  2778.52  140.43  o
  10  4  -4  0  2836.86  2795.31  139.89  o
  10  4  4  1  42.63  11.30  48.96  <
  10  4  -4  1  40.88  3.77  48.96  <
  10  4  4  2  16.28  -22.59  58.37  <
  10  4  -4  2  16.73  35.78  50.84  <
  11  4  4  -2  16.97  -13.18  41.42  <
  11  4  -4  -2  15.54  22.59  39.54  <
  11  4  4  -1  1063.27  889.53  96.57  o
  11  4  -4  -1  1026.14  957.34  98.18  o
  11  4  4  0  2108.73  2095.49  126.43  o
  11  4  -4  0  2037.83  2102.92  127.97  o
  11  4  4  1  1803.81  1766.77  128.35  o
  11  4  -4  1  1794.60  1821.44  126.23  o
  11  4  4  2  10.62  58.37  64.01  <
  11  4  -4  2  8.23  32.01  58.37  <
  12  4  4  -2  10.20  -7.53  47.07  <
  12  4  -4  -2  10.61  39.54  45.18  <
  12  4  4  -1  676.45  608.51  83.03  o
  12  4  -4  -1  651.59  501.11  81.28  o
  12  4  4  0  797.21  715.95  96.25  o
  12  4  -4  0  800.93  710.29  96.27  o
  12  4  4  1  154.91  218.44  73.40  <
  12  4  -4  1  161.63  112.99  60.29  <
  12  4  4  2  87.78  -9.42  65.91  <
  12  4  -4  2  90.03  92.27  62.14  <
  13  4  4  -2  5.96  43.31  48.95  <
  13  4  -4  -2  6.79  3.77  54.60  <
  13  4  4  -1  346.28  274.98  73.53  o
  13  4  -4  -1  344.07  386.10  80.93  o
  13  4  4  0  1432.62  1155.46  123.27  o
  13  4  -4  0  1383.38  1500.35  129.70  o
  13  4  4  1  1508.89  1694.60  138.91  o
  13  4  -4  1  1567.25  1485.43  128.44  o
  13  4  4  2  21.08  -15.06  69.67  <
  13  4  -4  2  19.15  47.07  64.01  <
  14  4  4  -2  3.06  -9.41  50.84  <
  14  4  -4  -2  3.49  -54.60  48.94  <
  14  4  4  -1  337.62  352.19  82.85  o
  14  4  -4  -1  338.99  384.21  80.93  o
  14  4  4  0  665.20  621.66  101.80  o
  14  4  -4  0  659.24  651.79  101.74  o
  14  4  4  1  94.93  64.02  73.45  <
  14  4  -4  1  95.67  -11.30  64.03  <
  15  4  4  -2  33.90  -65.90  64.01  <
  15  4  -4  -2  35.40  16.95  60.26  <
  15  4  4  -1  169.02  239.16  88.46  <
  15  4  -4  -1  173.23  150.65  73.45  <
  15  4  4  0  2402.66  2499.11  182.61  o
  15  4  -4  0  2514.62  2474.79  190.65  o
  16  4  4  -2  2.47  82.85  79.07  <
  16  4  -4  -2  2.29  -35.77  64.01  <
  0  5  4  -2  11.99  3.77  39.54  <
  0  5  -4  -2  12.28  33.89  39.54  <
  0  5  4  -1  1891.96  1684.66  117.79  o
  0  5  -4  -1  1751.13  2054.12  121.31  o
  0  5  4  0  1664.23  1889.60  133.08  o
  0  5  -4  0  2043.59  1607.30  126.14  o
  0  5  4  1  725.56  572.76  94.47  o
  0  5  -4  1  762.09  655.68  120.75  o
  0  5  4  2  88.11  50.84  67.80  <
  0  5  -4  2  107.22  20.71  62.16  <
  1  5  4  -2  13.94  50.84  28.23  <
  1  5  -4  -2  14.12  13.18  24.48  <
  1  5  4  -1  1063.73  1140.38  69.41  o
  1  5  -4  -1  1069.19  1151.69  63.70  o
  1  5  4  0  8545.35  9039.95  226.44  o
  1  5  -4  0  8884.94  8955.47  209.94  o
  1  5  4  1  53.59  173.23  54.53  o
  1  5  -4  1  74.59  18.83  45.20  <
  1  5  4  2  379.96  333.38  67.87  o
  1  5  -4  2  375.86  393.64  75.31  o
  2  5  4  -2  5.03  22.59  28.24  <
  2  5  -4  -2  5.24  -22.59  26.36  <
  2  5  4  -1  13.87  48.96  32.00  <
  2  5  -4  -1  14.40  15.06  32.01  <
  2  5  4  0  18.08  32.01  37.66  <
  2  5  -4  0  30.42  26.36  35.78  <
  2  5  4  1  16.56  33.89  47.07  <
  2  5  -4  1  19.01  -62.14  39.52  <
  2  5  4  2  1.56  -15.06  48.95  <
  2  5  -4  2  1.60  33.89  54.60  <
  3  5  4  -2  26.26  -9.41  28.24  <
  3  5  -4  -2  25.05  3.77  30.13  <
  3  5  4  -1  1532.99  1661.34  89.90  o
  3  5  -4  -1  1566.16  1478.47  85.28  o
  3  5  4  0  5755.18  5137.09  171.77  o
  3  5  -4  0  4976.85  5681.97  185.60  o
  3  5  4  1  2.04  13.18  41.42  <
  3  5  -4  1  0.25  7.53  43.31  <
  3  5  4  2  283.27  322.05  69.64  o
  3  5  -4  2  274.97  267.43  101.70  <
  4  5  4  -2  4.73  0.00  30.13  <
  4  5  -4  -2  5.39  22.59  35.77  <
  4  5  4  -1  1110.14  1048.01  86.91  o
  4  5  -4  -1  1089.19  1325.06  93.41  o
  4  5  4  0  841.12  774.45  79.32  o
  4  5  -4  0  798.60  900.67  97.74  o
  4  5  4  1  486.92  568.86  77.08  o
  4  5  -4  1  470.34  740.27  108.82  o
  4  5  4  2  53.31  9.41  45.20  <
  4  5  -4  2  52.79  -28.24  54.61  <
  5  5  4  -2  6.12  -3.77  32.01  <
  5  5  -4  -2  7.72  15.06  32.01  <
  5  5  4  -1  642.82  708.39  80.86  o
  5  5  -4  -1  660.36  738.55  88.38  o
  5  5  4  0  2507.11  2592.79  131.65  o
  5  5  -4  0  2590.18  2596.75  139.62  o
  5  5  4  1  115.00  54.61  50.87  <
  5  5  -4  1  102.96  71.56  54.62  <
  5  5  4  2  310.76  273.08  69.72  o
  5  5  -4  2  289.50  406.80  82.73  o
  6  5  4  -2  8.81  -15.06  35.77  <
  6  5  -4  -2  9.23  -7.53  33.89  <
  6  5  4  -1  140.04  161.95  52.71  o
  6  5  -4  -1  146.35  175.13  52.70  o
  6  5  4  0  162.41  143.12  52.74  <
  6  5  -4  0  121.09  195.84  60.20  o
  6  5  4  1  54.21  128.04  58.34  <
  6  5  -4  1  51.40  50.84  52.72  <
  6  5  4  2  0.76  41.42  58.36  <
  6  5  -4  2  0.79  -13.18  56.49  <
  7  5  4  -2  0.88  50.84  41.41  <
  7  5  -4  -2  0.21  -32.01  33.89  <
  7  5  4  -1  2019.77  2012.62  132.07  o
  7  5  -4  -1  2126.43  2067.52  115.36  o
  7  5  4  0  6247.37  6452.17  214.14  o
  7  5  -4  0  6926.60  5910.40  210.82  o
  7  5  4  1  104.58  32.01  56.51  <
  7  5  -4  1  74.41  126.16  60.23  <
  7  5  4  2  254.47  173.26  67.86  <
  7  5  -4  2  250.25  188.32  69.73  <
  8  5  4  -2  1.18  -7.53  39.54  <
  8  5  -4  -2  1.83  -30.13  35.77  <
  8  5  4  -1  1237.51  1391.04  120.18  o
  8  5  -4  -1  1167.58  1123.32  103.79  o
  8  5  4  0  271.64  433.16  78.89  o
  8  5  -4  0  325.23  246.72  62.24  o
  8  5  4  1  298.44  331.46  79.06  o
  8  5  -4  1  301.90  278.73  77.24  o
  8  5  4  2  23.03  -7.53  62.14  <
  8  5  -4  2  21.93  -22.59  62.13  <
  9  5  4  -2  2.80  -41.42  43.30  <
  9  5  -4  -2  4.72  7.53  41.42  <
  9  5  4  -1  652.03  499.23  92.55  o
  9  5  -4  -1  665.41  623.58  82.98  o
  9  5  4  0  4852.36  4613.66  216.85  o
  9  5  -4  0  4814.05  5010.42  191.43  o
  9  5  4  1  270.58  335.22  80.91  o
  9  5  -4  1  334.42  286.27  71.62  o
  9  5  4  2  257.59  244.82  80.99  o
  9  5  -4  2  281.76  71.56  73.56  <
  10  5  4  -2  0.02  -1.88  45.19  <
  10  5  -4  -2  0.11  3.77  43.31  <
  10  5  4  -1  176.66  145.00  58.40  <
  10  5  -4  -1  176.34  303.19  69.55  o
  10  5  4  0  1074.21  896.99  126.61  o
  10  5  -4  0  1135.79  1036.49  113.32  o
  10  5  4  1  79.43  65.90  71.56  <
  10  5  -4  1  82.70  18.83  62.15  <
  10  5  4  2  17.41  20.71  69.67  <
  10  5  -4  2  17.63  20.71  65.90  <
  11  5  4  -2  48.04  35.78  52.73  <
  11  5  -4  -2  43.94  11.30  50.84  <
  11  5  4  -1  1534.81  1630.62  125.98  o
  11  5  -4  -1  1476.21  1323.29  124.86  o
  11  5  4  0  4450.80  3936.93  216.09  o
  11  5  -4  0  3996.60  4477.60  193.56  o
  11  5  4  1  295.16  448.22  97.77  o
  11  5  -4  1  307.23  199.63  75.42  <
  12  5  4  -2  20.78  11.30  56.49  <
  12  5  -4  -2  17.63  37.66  52.72  <
  12  5  4  -1  704.39  649.94  98.06  o
  12  5  -4  -1  721.62  757.33  103.55  o
  12  5  4  0  181.96  167.60  88.51  <
  12  5  -4  0  248.09  192.09  73.49  <
  13  5  4  -2  17.55  -35.78  52.72  <
  13  5  -4  -2  15.46  20.71  54.60  <
  13  5  4  -1  1104.50  1173.98  129.86  o
  13  5  -4  -1  1035.07  1036.37  120.59  o
  13  5  4  0  589.13  695.08  120.40  o
  13  5  -4  0  815.50  563.31  104.04  o
  14  5  4  -2  14.79  -18.83  58.37  <
  14  5  -4  -2  13.27  26.36  64.02  <
  14  5  4  -1  359.35  256.14  124.37  <
  14  5  -4  -1  337.68  423.75  114.81  o
  0  6  4  -2  50.92  97.91  54.59  <
  0  6  -4  -2  59.67  -11.30  54.61  <
  0  6  4  -1  1222.31  1692.57  164.70  o
  0  6  -4  -1  1343.55  1049.95  125.13  o
  0  6  4  0  3869.35  4053.06  371.54  o
  0  6  -4  0  3772.23  4190.62  222.71  o
  0  6  4  1  235.95  406.78  180.70  <
  0  6  -4  1  251.95  225.99  96.06  <
  0  6  4  2  5.86  -5.65  131.80  <
  0  6  -4  2  2.48  -1.88  128.04  <
  1  6  4  -2  82.18  7.53  45.21  <
  1  6  -4  -2  84.19  15.06  33.92  <
  1  6  4  -1  4266.69  4374.47  159.84  o
  1  6  -4  -1  4359.22  4299.22  155.41  o
  1  6  4  0  119.91  171.36  67.76  <
  1  6  -4  0  133.59  15.06  60.29  <
  1  6  4  1  1616.44  1898.38  165.08  o
  1  6  -4  1  1618.02  1468.56  124.91  o
  1  6  4  2  5.93  -11.30  86.61  <
  1  6  -4  2  7.62  45.19  69.66  <
  2  6  4  -2  9.56  5.65  37.66  <
  2  6  -4  -2  8.33  67.78  41.41  <
  2  6  4  -1  13.53  -15.06  43.31  <
  2  6  -4  -1  13.90  -3.77  52.72  <
  2  6  4  0  87.20  148.76  62.11  <
  2  6  -4  0  85.97  65.91  62.15  <
  2  6  4  1  70.57  -26.36  65.91  <
  2  6  -4  1  68.21  82.85  92.26  <
  2  6  4  2  3.10  16.95  88.50  <
  2  6  -4  2  2.85  -48.96  67.78  <
  3  6  4  -2  35.24  24.48  37.66  <
  3  6  -4  -2  40.23  -26.36  39.54  <
  3  6  4  -1  4038.87  3596.96  144.77  o
  3  6  -4  -1  4022.76  4076.75  164.00  o
  3  6  4  0  1303.50  1460.72  120.14  o
  3  6  -4  0  1325.17  1532.37  176.72  o
  3  6  4  1  1541.80  1690.89  140.92  o
  3  6  -4  1  1591.73  1721.12  191.98  o
  3  6  4  2  27.43  35.78  88.50  <
  3  6  -4  2  27.32  32.01  97.91  <
  4  6  4  -2  69.74  16.95  39.56  <
  4  6  -4  -2  71.46  20.71  54.62  <
  4  6  4  -1  1164.60  1157.19  99.91  o
  4  6  -4  -1  1107.69  1032.75  126.43  o
  4  6  4  0  844.02  1273.66  121.40  o
  4  6  -4  0  928.91  1090.97  135.33  o
  4  6  4  1  121.40  24.48  92.29  <
  4  6  -4  1  89.86  22.60  79.10  <
  4  6  4  2  28.10  77.20  141.21  <
  4  6  -4  2  21.75  13.18  88.50  <
  5  6  4  -2  63.95  41.43  50.85  <
  5  6  -4  -2  68.07  47.07  52.73  <
  5  6  4  -1  3131.27  2955.99  142.56  o
  5  6  -4  -1  3097.43  3093.71  156.69  o
  5  6  4  0  321.05  314.52  77.22  o
  5  6  -4  0  382.21  391.76  88.51  o
  5  6  4  1  1485.71  1364.70  162.38  o
  5  6  -4  1  1431.26  1700.15  167.06  o
  5  6  4  2  11.69  5.65  79.08  <
  5  6  -4  2  10.88  -1.88  90.38  <
  6  6  4  -2  19.55  -32.01  45.19  <
  6  6  -4  -2  15.45  20.71  50.84  <
  6  6  4  -1  83.36  41.43  52.74  <
  6  6  -4  -1  84.95  15.06  54.62  <
  6  6  4  0  67.42  24.48  60.26  <
  6  6  -4  0  87.15  47.08  62.15  <
  6  6  4  1  6.32  39.54  64.01  <
  6  6  -4  1  3.27  -11.30  73.43  <
  7  6  4  -2  85.26  30.13  54.62  <
  7  6  -4  -2  90.52  65.91  54.62  <
  7  6  4  -1  2883.68  2898.54  150.89  o
  7  6  -4  -1  2788.38  2883.23  156.15  o
  7  6  4  0  212.49  67.79  64.10  <
  7  6  -4  0  112.17  261.74  80.87  o
  7  6  4  1  1189.53  1053.43  132.22  o
  7  6  -4  1  1130.61  1125.00  154.53  o
  8  6  4  -2  26.82  -16.95  52.72  <
  8  6  -4  -2  26.57  60.25  48.95  <
  8  6  4  -1  650.87  928.72  110.59  o
  8  6  -4  -1  770.27  768.66  107.39  o
  8  6  4  0  1028.10  1055.21  131.84  o
  8  6  -4  0  1009.54  955.33  122.59  o
  9  6  4  -2  90.97  50.84  60.27  <
  9  6  -4  -2  83.57  11.30  50.85  <
  9  6  4  -1  2373.65  2138.94  142.44  o
  9  6  -4  -1  2315.34  2336.89  156.46  o
  9  6  4  0  880.06  636.82  113.46  o
  9  6  -4  0  758.42  740.38  116.83  o
  10  6  4  -2  21.34  45.19  67.78  <
  10  6  -4  -2  23.18  -15.06  50.84  <
  10  6  4  -1  205.77  118.64  77.25  <
  10  6  -4  -1  209.35  203.38  79.10  <
  11  6  4  -2  61.00  41.43  62.14  <
  11  6  -4  -2  62.74  35.78  58.38  <
  11  6  4  -1  2207.54  2393.15  174.73  o
  11  6  -4  -1  2345.89  2378.29  180.95  o
  12  6  4  -2  84.20  111.10  69.66  <
  12  6  -4  -2  89.24  50.84  67.80  <
  0  7  4  -2  84.70  116.75  92.26  <
  0  7  -4  -2  78.40  161.94  75.28  <
  0  7  4  -1  272.37  273.07  148.78  <
  0  7  -4  -1  261.15  344.64  176.99  <
  0  7  4  0  394.81  214.71  154.53  <
  0  7  -4  0  408.80  523.59  182.61  <
  1  7  4  -2  158.07  160.07  69.67  <
  1  7  -4  -2  150.28  167.60  64.01  <
  1  7  4  -1  564.29  582.05  194.00  <
  1  7  -4  -1  559.23  487.87  90.52  o
  1  7  4  0  1451.03  1455.09  216.75  o
  1  7  -4  0  1497.35  1485.30  286.52  o
  2  7  4  -2  0.25  11.30  64.02  <
  2  7  -4  -2  0.49  15.06  65.90  <
  2  7  4  -1  20.36  65.90  86.61  <
  2  7  -4  -1  17.28  65.90  67.78  <
  2  7  4  0  70.79  186.41  161.91  <
  2  7  -4  0  69.36  58.37  128.04  <
  3  7  4  -2  101.25  47.08  58.39  <
  3  7  -4  -2  106.80  7.53  77.22  <
  3  7  4  -1  538.72  320.22  130.15  <
  3  7  -4  -1  529.75  410.63  124.43  o
  4  7  4  -2  40.30  60.25  80.96  <
  4  7  -4  -2  41.22  48.96  71.55  <
  4  7  4  -1  291.42  288.14  118.65  <
  4  7  -4  -1  240.23  282.48  97.90  <
  5  7  4  -2  133.30  116.75  65.92  <
  5  7  -4  -2  147.29  32.01  71.59  <
  5  7  4  -1  611.52  742.18  131.68  o
  5  7  -4  -1  632.84  602.80  126.25  o
  6  7  4  -2  13.69  -3.77  62.14  <
  6  7  -4  -2  13.30  156.28  79.03  <
  6  7  4  -1  169.57  231.62  94.12  <
  6  7  -4  -1  199.77  331.43  101.59  o
  7  7  4  -2  56.02  64.02  62.14  <
  7  7  -4  -2  57.87  -20.71  62.14  <
  8  7  4  -2  43.61  92.26  75.30  <
  8  7  -4  -2  43.91  3.77  65.91  <
  1  0  5  1  141.33  150.71  16.93  o
  1  0  -5  1  148.48  124.33  22.64  o
  1  0  5  2  4.33  13.18  18.83  <
  1  0  -5  2  3.87  -5.65  15.06  <
  2  0  5  0  56536.00  56922.80  774.35  o
  2  0  -5  0  56475.20  57846.70  1029.58  o
  2  0  5  1  1542.70  1562.87  43.33  o
  2  0  -5  1  1537.67  1479.60  44.05  o
  2  0  5  2  46.32  39.55  18.84  <
  2  0  -5  2  47.15  54.61  16.94  o
  3  0  5  1  72.79  64.03  13.19  o
  3  0  -5  1  71.80  71.56  15.07  o
  3  0  5  2  9.32  7.53  13.18  <
  3  0  -5  2  9.88  3.77  16.95  <
  4  0  5  0  37.76  28.25  18.83  <
  4  0  -5  0  47.83  52.73  18.83  <
  4  0  5  1  73.93  79.10  15.06  o
  4  0  -5  1  72.75  52.73  16.97  o
  4  0  5  2  8.41  11.30  11.30  <
  4  0  -5  2  8.55  -3.77  13.18  <
  5  0  5  1  114.66  107.35  16.96  o
  5  0  -5  1  107.04  124.30  18.80  o
  5  0  5  2  0.71  -11.30  13.18  <
  5  0  -5  2  0.74  9.41  15.06  <
  6  0  5  0  68007.40  66828.60  1040.17  o
  6  0  -5  0  68141.20  66790.60  1026.71  o
  6  0  5  1  780.75  801.41  35.71  o
  6  0  -5  1  791.73  756.17  34.16  o
  6  0  5  2  97.98  28.25  15.13  <
  6  0  -5  2  98.55  56.50  17.00  o
  7  0  5  1  23.06  1.88  15.07  <
  7  0  -5  1  23.92  16.95  15.07  <
  7  0  5  2  50.89  22.60  20.73  <
  7  0  -5  2  50.64  1.88  15.08  <
  8  0  5  0  10510.70  10480.80  227.96  o
  8  0  -5  0  10554.10  10230.90  222.09  o
  8  0  5  1  1064.09  971.22  43.94  o
  8  0  -5  1  1055.51  1037.21  39.73  o
  8  0  5  2  12.55  32.01  22.59  <
  8  0  -5  2  12.63  26.36  20.71  <
  9  0  5  1  133.87  145.01  32.00  o
  9  0  -5  1  138.58  152.54  26.34  o
  9  0  5  2  16.07  26.36  24.48  <
  9  0  -5  2  15.71  13.18  20.71  <
  10  0  5  0  7007.54  6693.62  187.26  o
  10  0  -5  0  6710.61  6820.31  183.05  o
  10  0  5  1  243.02  239.20  39.56  o
  10  0  -5  1  234.21  186.46  33.98  o
  10  0  5  2  4.19  0.00  28.24  <
  10  0  -5  2  3.09  0.00  24.48  <
  11  0  5  1  60.51  33.89  35.79  <
  11  0  -5  1  57.10  50.84  33.90  <
  11  0  5  2  21.46  16.95  33.89  <
  11  0  -5  2  23.80  -30.13  28.24  <
  12  0  5  0  1295.37  1596.90  131.06  o
  12  0  -5  0  1276.40  1263.17  156.51  o
  12  0  5  1  1343.09  1581.88  89.44  o
  12  0  -5  1  1329.57  1423.49  99.58  o
  12  0  5  2  40.63  -50.84  30.11  <
  12  0  -5  2  32.11  18.83  33.90  <
  13  0  5  1  14.87  -7.53  39.54  <
  13  0  -5  1  15.89  -20.71  41.42  <
  13  0  5  2  51.02  11.30  41.43  <
  13  0  -5  2  53.66  64.02  48.95  <
  14  0  5  0  31777.30  31403.00  776.13  o
  14  0  -5  0  31898.40  30599.20  913.64  o
  14  0  5  1  393.40  435.10  77.16  o
  14  0  -5  1  413.89  566.95  88.29  o
  14  0  5  2  12.74  0.00  47.07  <
  14  0  -5  2  12.84  -62.14  43.29  <
  15  0  5  1  40.21  88.50  56.47  <
  15  0  -5  1  41.47  79.08  62.13  <
  15  0  5  2  22.32  -56.49  47.06  <
  15  0  -5  2  24.83  -22.60  54.60  <
  16  0  5  0  5447.00  5574.26  334.12  o
  16  0  -5  0  5494.58  5455.34  340.54  o
  16  0  5  1  112.83  143.11  69.66  <
  16  0  -5  1  118.86  45.19  64.05  <
  16  0  5  2  87.78  35.78  60.27  <
  16  0  -5  2  96.01  -1.88  62.15  <
  17  0  5  1  191.01  167.60  101.70  <
  17  0  -5  1  187.78  178.90  80.98  <
  17  0  5  2  25.25  5.65  73.43  <
  17  0  -5  2  23.14  -13.18  71.55  <
  18  0  5  0  1163.89  1575.41  329.30  o
  18  0  -5  0  1115.74  1189.05  212.83  o
  18  0  5  1  326.65  188.33  109.31  <
  18  0  -5  1  328.52  214.70  98.01  <
  18  0  5  2  24.25  -5.65  86.61  <
  18  0  -5  2  24.03  -75.32  71.54  <
  1  1  5  -2  3.59  -11.30  13.18  <
  1  1  -5  -2  3.51  -16.95  11.29  <
  1  1  5  -1  697.30  694.50  28.33  o
  1  1  -5  -1  708.87  741.71  33.78  o
  1  1  5  0  6145.34  6567.77  106.51  o
  1  1  -5  0  6280.19  6255.82  105.86  o
  1  1  5  1  33.33  45.19  16.94  <
  1  1  -5  1  34.39  52.73  16.93  o
  1  1  5  2  23.29  41.43  16.94  <
  1  1  -5  2  20.92  22.60  13.18  <
  2  1  5  -2  52.72  77.21  13.15  o
  2  1  -5  -2  50.57  58.38  18.83  o
  2  1  5  -1  1281.00  1255.11  43.68  o
  2  1  -5  -1  1268.54  1224.82  41.93  o
  2  1  5  0  14162.30  15228.30  205.36  o
  2  1  -5  0  14114.20  15778.10  171.74  o
  2  1  5  1  848.87  862.27  41.44  o
  2  1  -5  1  858.02  858.51  35.85  o
  2  1  5  2  36.94  39.54  16.95  <
  2  1  -5  2  40.02  5.65  13.19  <
  3  1  5  -2  1.09  5.65  11.30  <
  3  1  -5  -2  1.09  -26.36  11.29  <
  3  1  5  -1  116.42  120.54  16.94  o
  3  1  -5  -1  116.77  103.59  20.74  o
  3  1  5  0  678.26  795.93  29.38  o
  3  1  -5  0  877.06  632.15  37.13  o
  3  1  5  1  87.16  69.68  15.09  o
  3  1  -5  1  76.66  50.85  15.09  o
  3  1  5  2  43.22  26.36  13.19  <
  3  1  -5  2  40.82  45.19  16.94  <
  4  1  5  -2  6.28  0.00  11.30  <
  4  1  -5  -2  6.49  9.41  11.30  <
  4  1  5  -1  252.28  280.72  22.52  o
  4  1  -5  -1  265.22  256.23  22.64  o
  4  1  5  0  1313.62  1323.80  41.46  o
  4  1  -5  0  1358.03  1354.15  41.58  o
  4  1  5  1  62.26  54.61  15.07  o
  4  1  -5  1  60.08  39.55  18.84  <
  4  1  5  2  1.10  -3.77  13.18  <
  4  1  -5  2  1.31  3.77  15.06  <
  5  1  5  -2  9.53  15.06  13.18  <
  5  1  -5  -2  9.97  16.95  13.18  <
  5  1  5  -1  370.65  376.87  26.36  o
  5  1  -5  -1  366.66  373.10  28.24  o
  5  1  5  0  522.93  329.85  27.15  o
  5  1  -5  0  342.22  484.23  29.59  o
  5  1  5  1  5.14  3.77  13.18  <
  5  1  -5  1  7.89  20.71  16.94  <
  5  1  5  2  34.71  -9.41  16.95  <
  5  1  -5  2  35.07  5.65  15.07  <
  6  1  5  -2  12.53  16.95  15.06  <
  6  1  -5  -2  15.19  18.83  13.18  <
  6  1  5  -1  548.19  518.32  32.17  o
  6  1  -5  -1  541.64  593.71  33.69  o
  6  1  5  0  2783.49  2747.50  62.87  o
  6  1  -5  0  2745.51  2845.70  61.22  o
  6  1  5  1  1473.66  1406.22  51.47  o
  6  1  -5  1  1438.45  1415.58  51.13  o
  6  1  5  2  37.90  56.49  22.58  <
  6  1  -5  2  35.07  35.78  18.83  <
  7  1  5  -2  15.20  13.18  15.06  <
  7  1  -5  -2  14.96  -13.18  13.18  <
  7  1  5  -1  586.66  653.99  35.49  o
  7  1  -5  -1  600.00  650.24  33.67  o
  7  1  5  0  1511.40  1223.05  54.73  o
  7  1  -5  0  1250.78  1462.14  53.26  o
  7  1  5  1  386.58  455.93  41.25  o
  7  1  -5  1  425.95  422.04  39.58  o
  7  1  5  2  60.94  37.66  24.49  <
  7  1  -5  2  63.96  28.25  24.50  <
  8  1  5  -2  0.82  -1.88  16.95  <
  8  1  -5  -2  0.63  0.00  15.06  <
  8  1  5  -1  570.60  593.61  45.15  o
  8  1  -5  -1  538.99  569.08  37.57  o
  8  1  5  0  23012.40  23404.50  321.19  o
  8  1  -5  0  22993.60  23287.20  334.97  o
  8  1  5  1  91.81  56.49  26.39  <
  8  1  -5  1  79.86  37.66  24.50  <
  8  1  5  2  6.02  -26.36  24.47  <
  8  1  -5  2  6.85  -5.65  22.59  <
  9  1  5  -2  32.14  22.60  24.48  <
  9  1  -5  -2  30.57  15.06  18.83  <
  9  1  5  -1  941.52  914.34  54.79  o
  9  1  -5  -1  899.07  1095.26  47.90  o
  9  1  5  0  1946.18  1823.44  76.31  o
  9  1  -5  0  1984.79  1934.91  75.85  o
  9  1  5  1  102.73  150.65  35.73  o
  9  1  -5  1  123.30  103.57  32.03  o
  9  1  5  2  14.54  -11.30  24.48  <
  9  1  -5  2  12.78  16.95  32.01  <
  10  1  5  -2  33.94  0.00  28.25  <
  10  1  -5  -2  28.15  11.30  26.36  <
  10  1  5  -1  7.55  -13.18  30.13  <
  10  1  -5  -1  6.09  22.59  22.59  <
  10  1  5  0  18183.90  17927.10  296.50  o
  10  1  -5  0  18208.40  17717.90  334.01  o
  10  1  5  1  817.29  855.63  62.05  o
  10  1  -5  1  837.19  836.80  71.62  o
  10  1  5  2  44.86  15.06  32.02  <
  10  1  -5  2  51.25  -11.30  28.25  <
  11  1  5  -2  30.84  24.48  33.89  <
  11  1  -5  -2  31.21  5.65  32.01  <
  11  1  5  -1  900.45  791.59  70.08  o
  11  1  -5  -1  925.71  906.59  75.45  o
  11  1  5  0  1926.55  2056.60  99.30  o
  11  1  -5  0  2031.03  1998.33  98.30  o
  11  1  5  1  56.28  47.07  37.66  <
  11  1  -5  1  50.65  45.19  33.90  <
  11  1  5  2  85.39  30.13  35.80  <
  11  1  -5  2  79.82  52.73  35.79  <
  12  1  5  -2  94.17  33.90  37.68  <
  12  1  -5  -2  102.10  43.31  43.33  <
  12  1  5  -1  369.43  357.88  56.53  o
  12  1  -5  -1  388.65  414.40  60.23  o
  12  1  5  0  5241.56  5522.78  183.27  o
  12  1  -5  0  5319.36  5727.62  168.67  o
  12  1  5  1  21.15  -43.31  33.88  <
  12  1  -5  1  30.04  11.30  35.78  <
  12  1  5  2  40.40  30.13  39.54  <
  12  1  -5  2  46.14  28.24  43.31  <
  13  1  5  -2  37.13  -18.83  32.01  <
  13  1  -5  -2  35.62  20.71  47.08  <
  13  1  5  -1  1076.00  1093.17  94.19  o
  13  1  -5  -1  1163.72  1132.84  105.64  o
  13  1  5  0  1303.28  1466.64  108.77  o
  13  1  -5  0  1343.73  1372.43  105.47  o
  13  1  5  1  90.99  73.44  48.97  <
  13  1  -5  1  97.11  24.48  45.21  <
  13  1  5  2  14.26  3.77  47.07  <
  13  1  -5  2  12.61  15.06  43.31  <
  14  1  5  -2  62.44  -11.30  45.20  <
  14  1  -5  -2  64.35  22.60  48.97  <
  14  1  5  -1  31.67  9.41  43.31  <
  14  1  -5  -1  38.05  -41.42  43.30  <
  14  1  5  0  536.30  631.06  86.48  o
  14  1  -5  0  550.61  583.97  84.71  o
  14  1  5  1  1096.88  1149.63  118.60  o
  14  1  -5  1  1097.37  1251.40  114.53  o
  14  1  5  2  14.34  33.89  52.72  <
  14  1  -5  2  14.96  9.41  52.72  <
  15  1  5  -2  15.30  -33.89  50.83  <
  15  1  -5  -2  16.70  -56.49  50.83  <
  15  1  5  -1  352.12  342.78  75.35  o
  15  1  -5  -1  387.56  273.11  79.23  o
  15  1  5  0  122.26  171.36  67.76  <
  15  1  -5  0  97.16  39.54  60.27  <
  15  1  5  1  175.96  128.05  65.94  <
  15  1  -5  1  207.51  171.37  64.06  <
  15  1  5  2  5.69  22.59  56.49  <
  15  1  -5  2  6.34  15.06  56.49  <
  16  1  5  -2  13.61  64.02  58.36  <
  16  1  -5  -2  14.65  22.59  56.49  <
  16  1  5  -1  47.79  1.88  69.67  <
  16  1  -5  -1  58.07  35.78  64.03  <
  16  1  5  0  17756.90  18194.50  451.51  o
  16  1  -5  0  17773.90  17650.70  468.85  o
  16  1  5  1  11.92  -39.54  54.60  <
  16  1  -5  1  5.89  26.36  67.78  <
  16  1  5  2  25.97  -33.89  56.48  <
  16  1  -5  2  23.56  11.30  65.90  <
  17  1  5  -2  18.95  24.48  75.32  <
  17  1  -5  -2  15.84  -69.67  62.12  <
  17  1  5  -1  271.21  242.94  99.83  <
  17  1  -5  -1  255.64  282.49  94.14  <
  17  1  5  0  472.56  337.15  103.73  o
  17  1  -5  0  435.98  433.20  103.60  o
  17  1  5  1  91.66  16.95  73.45  <
  17  1  -5  1  89.08  0.00  75.33  <
  17  1  5  2  70.33  28.24  65.91  <
  17  1  -5  2  72.89  26.36  77.21  <
  18  1  5  -2  1.01  35.77  90.38  <
  18  1  -5  -2  0.62  -30.13  69.66  <
  18  1  5  -1  146.29  193.96  105.43  <
  18  1  -5  -1  135.31  184.54  92.25  <
  18  1  5  0  6976.64  6575.65  408.60  o
  18  1  -5  0  6955.28  7445.98  305.33  o
  18  1  5  1  891.00  623.63  139.79  o
  18  1  -5  1  867.42  881.73  143.16  o
  1  2  5  -2  32.51  33.90  16.95  <
  1  2  -5  -2  31.89  20.71  15.07  <
  1  2  5  -1  869.63  873.58  37.71  o
  1  2  -5  -1  854.58  841.48  30.29  o
  1  2  5  0  1867.38  1561.30  53.63  o
  1  2  -5  0  1551.96  1832.29  44.39  o
  1  2  5  1  1197.27  1254.85  44.87  o
  1  2  -5  1  1177.27  1194.43  35.70  o
  1  2  5  2  13.34  3.77  16.95  <
  1  2  -5  2  15.52  9.41  13.18  <
  2  2  5  -2  9.85  0.00  16.95  <
  2  2  -5  -2  11.30  -16.95  13.18  <
  2  2  5  -1  532.76  561.78  31.91  o
  2  2  -5  -1  522.28  482.59  30.34  o
  2  2  5  0  49178.40  48909.20  585.43  o
  2  2  -5  0  49210.10  48171.20  590.24  o
  2  2  5  1  5268.37  5064.74  83.24  o
  2  2  -5  1  5257.57  5169.17  90.68  o
  2  2  5  2  198.62  188.35  26.39  o
  2  2  -5  2  191.71  203.41  28.23  o
  3  2  5  -2  46.09  45.19  13.18  o
  3  2  -5  -2  44.83  32.01  15.07  <
  3  2  5  -1  601.93  601.41  28.28  o
  3  2  -5  -1  602.39  622.15  33.84  o
  3  2  5  0  3493.57  3767.97  66.18  o
  3  2  -5  0  3716.16  3403.59  86.86  o
  3  2  5  1  1073.05  1065.76  37.78  o
  3  2  -5  1  1073.44  1073.31  45.27  o
  3  2  5  2  51.86  35.78  16.96  <
  3  2  -5  2  53.92  64.02  22.59  <
  4  2  5  -2  4.36  9.41  13.18  <
  4  2  -5  -2  4.39  16.95  15.06  <
  4  2  5  -1  45.84  52.73  15.06  o
  4  2  -5  -1  53.90  60.26  20.71  <
  4  2  5  0  2732.12  2697.96  60.95  o
  4  2  -5  0  2711.55  2644.89  81.93  o
  4  2  5  1  296.33  342.85  28.11  o
  4  2  -5  1  297.35  307.06  33.88  o
  4  2  5  2  23.11  -15.06  18.83  <
  4  2  -5  2  20.99  -5.65  20.71  <
  5  2  5  -2  4.81  22.59  15.06  <
  5  2  -5  -2  3.65  -7.53  13.18  <
  5  2  5  -1  373.06  384.36  28.22  o
  5  2  -5  -1  362.34  378.70  33.87  o
  5  2  5  0  3551.04  3672.09  81.91  o
  5  2  -5  0  3702.51  3663.52  87.57  o
  5  2  5  1  486.77  638.76  40.87  o
  5  2  -5  1  498.56  591.67  39.22  o
  5  2  5  2  31.02  32.01  22.60  <
  5  2  -5  2  32.88  22.60  20.72  <
  6  2  5  -2  14.32  -18.83  13.18  <
  6  2  -5  -2  16.81  -1.88  15.06  <
  6  2  5  -1  1394.96  1366.28  51.16  o
  6  2  -5  -1  1413.48  1371.98  51.25  o
  6  2  5  0  16620.40  16319.30  254.20  o
  6  2  -5  0  16594.60  15583.40  269.26  o
  6  2  5  1  2694.65  2793.32  78.46  o
  6  2  -5  1  2714.43  2602.51  80.37  o
  6  2  5  2  130.95  86.63  28.29  o
  6  2  -5  2  121.00  58.38  26.41  <
  7  2  5  -2  18.67  33.89  20.71  <
  7  2  -5  -2  16.05  15.06  20.71  <
  7  2  5  -1  12.35  -7.53  20.71  <
  7  2  -5  -1  17.89  48.96  24.47  <
  7  2  5  0  2394.98  2640.97  81.08  o
  7  2  -5  0  2587.43  2420.58  84.46  o
  7  2  5  1  1660.19  1626.52  68.14  o
  7  2  -5  1  1675.45  1543.53  68.75  o
  7  2  5  2  30.74  37.66  32.01  <
  7  2  -5  2  29.14  -32.01  24.47  <
  8  2  5  -2  6.97  -3.77  20.71  <
  8  2  -5  -2  5.43  16.95  22.59  <
  8  2  5  -1  1556.44  1630.20  65.56  o
  8  2  -5  -1  1554.75  1637.74  65.50  o
  8  2  5  0  17003.10  16978.00  275.46  o
  8  2  -5  0  17100.90  17376.30  274.34  o
  8  2  5  1  561.74  506.84  51.02  o
  8  2  -5  1  565.59  503.07  56.68  o
  8  2  5  2  9.17  -30.13  33.89  <
  8  2  -5  2  6.69  -1.88  30.13  <
  9  2  5  -2  14.61  11.30  24.48  <
  9  2  -5  -2  14.48  5.65  24.48  <
  9  2  5  -1  120.61  60.26  30.17  <
  9  2  -5  -1  135.77  67.80  33.95  <
  9  2  5  0  1661.38  1475.27  74.60  o
  9  2  -5  0  1634.79  1703.49  86.42  o
  9  2  5  1  1085.48  1127.32  80.91  o
  9  2  -5  1  1110.40  1193.33  78.85  o
  9  2  5  2  11.39  -16.95  32.01  <
  9  2  -5  2  13.09  -18.83  30.12  <
  10  2  5  -2  12.85  5.65  28.24  <
  10  2  -5  -2  11.77  -15.06  30.13  <
  10  2  5  -1  453.17  467.19  52.71  o
  10  2  -5  -1  451.65  365.46  52.92  o
  10  2  5  0  9556.89  9083.19  222.17  o
  10  2  -5  0  9506.13  9417.48  221.66  o
  10  2  5  1  1568.69  1610.58  94.11  o
  10  2  -5  1  1561.31  1752.01  91.48  o
  10  2  5  2  62.87  73.44  43.30  <
  10  2  -5  2  56.95  35.78  37.67  <
  11  2  5  -2  14.80  -3.77  28.24  <
  11  2  -5  -2  14.69  56.49  39.53  <
  11  2  5  -1  67.86  50.84  33.90  <
  11  2  -5  -1  60.03  80.97  39.53  <
  11  2  5  0  1285.80  1270.69  94.32  o
  11  2  -5  0  1158.01  1377.98  85.83  o
  11  2  5  1  275.11  242.96  54.66  o
  11  2  -5  1  238.74  312.63  58.29  o
  11  2  5  2  87.43  62.14  45.20  <
  11  2  -5  2  96.38  58.37  43.33  <
  12  2  5  -2  9.83  11.30  37.66  <
  12  2  -5  -2  10.86  28.24  37.66  <
  12  2  5  -1  1791.44  1712.59  107.85  o
  12  2  -5  -1  1762.38  1878.52  101.29  o
  12  2  5  0  67.91  52.72  41.43  <
  12  2  -5  0  24.80  47.07  43.30  <
  12  2  5  1  295.62  299.46  64.03  o
  12  2  -5  1  294.43  248.61  54.68  o
  12  2  5  2  58.84  26.36  47.08  <
  12  2  -5  2  55.98  16.95  43.32  <
  13  2  5  -2  8.41  -15.06  39.54  <
  13  2  -5  -2  6.22  -3.77  41.42  <
  13  2  5  -1  13.22  24.48  47.07  <
  13  2  -5  -1  9.56  -45.19  35.76  <
  13  2  5  0  2512.49  2453.11  141.80  o
  13  2  -5  0  2366.53  2513.18  123.75  o
  13  2  5  1  132.87  88.51  56.51  <
  13  2  -5  1  106.80  131.81  50.83  <
  13  2  5  2  64.07  11.30  45.20  <
  13  2  -5  2  65.94  13.18  45.20  <
  14  2  5  -2  13.19  41.42  48.95  <
  14  2  -5  -2  11.91  48.96  48.95  <
  14  2  5  -1  160.20  182.66  69.66  <
  14  2  -5  -1  154.05  190.20  64.00  <
  14  2  5  0  12540.50  12811.90  351.21  o
  14  2  -5  0  12623.80  12982.10  333.06  o
  14  2  5  1  1060.61  1017.63  118.82  o
  14  2  -5  1  1063.68  1062.86  105.53  o
  14  2  5  2  13.09  84.73  64.00  <
  14  2  -5  2  14.49  79.08  56.47  <
  15  2  5  -2  12.25  26.36  48.95  <
  15  2  -5  -2  11.33  22.59  58.37  <
  15  2  5  -1  208.42  152.54  67.83  <
  15  2  -5  -1  202.21  163.84  67.82  <
  15  2  5  0  1121.71  1413.40  133.04  o
  15  2  -5  0  1285.58  1121.44  121.05  o
  15  2  5  1  374.32  308.88  86.70  o
  15  2  -5  1  392.77  269.33  86.76  o
  15  2  5  2  39.38  30.13  56.49  <
  15  2  -5  2  36.20  41.42  71.55  <
  16  2  5  -2  24.16  -62.14  60.24  <
  16  2  -5  -2  24.54  45.19  67.78  <
  16  2  5  -1  142.79  148.76  73.44  <
  16  2  -5  -1  161.44  131.82  75.34  <
  16  2  5  0  4481.45  4845.81  218.95  o
  16  2  -5  0  4548.26  4655.23  267.79  o
  16  2  5  1  39.59  -18.83  67.79  <
  16  2  -5  1  42.88  39.54  69.67  <
  16  2  5  2  17.42  86.61  71.53  <
  16  2  -5  2  12.58  65.90  79.07  <
  17  2  5  -2  3.70  -86.61  67.76  <
  17  2  -5  -2  6.64  -3.77  75.32  <
  17  2  5  -1  127.96  109.22  79.10  <
  17  2  -5  -1  130.79  154.41  84.73  <
  17  2  5  0  1038.92  1351.04  136.80  o
  17  2  -5  0  1049.43  1051.45  163.93  o
  17  2  5  1  191.02  312.60  99.72  o
  17  2  -5  1  210.04  284.36  101.64  <
  18  2  5  -2  29.35  -103.56  79.06  <
  18  2  -5  -2  33.20  -52.72  75.31  <
  1  3  5  -2  22.67  5.65  15.07  <
  1  3  -5  -2  20.24  -3.77  11.30  <
  1  3  5  -1  310.64  290.12  30.20  o
  1  3  -5  -1  338.28  290.13  24.65  o
  1  3  5  0  14783.70  15040.50  220.61  o
  1  3  -5  0  15219.60  15150.30  197.88  o
  1  3  5  1  918.94  946.38  48.88  o
  1  3  -5  1  929.36  965.25  48.83  o
  1  3  5  2  155.41  107.35  32.06  o
  1  3  -5  2  139.76  199.62  31.92  o
  2  3  5  -2  24.86  32.01  15.06  <
  2  3  -5  -2  24.85  52.72  18.81  <
  2  3  5  -1  4567.12  4515.09  80.46  o
  2  3  -5  -1  4557.66  4414.47  89.20  o
  2  3  5  0  1268.50  1235.60  49.27  o
  2  3  -5  0  1193.69  1331.66  55.74  o
  2  3  5  1  825.40  908.54  44.80  o
  2  3  -5  1  811.97  759.62  52.98  o
  2  3  5  2  100.12  118.64  33.88  o
  2  3  -5  2  109.42  131.82  33.87  o
  3  3  5  -2  0.54  -18.83  11.29  <
  3  3  -5  -2  0.40  -26.36  15.05  <
  3  3  5  -1  36.91  37.66  15.06  <
  3  3  -5  -1  39.95  33.89  20.72  <
  3  3  5  0  5300.37  5163.96  94.98  o
  3  3  -5  0  5332.87  5107.28  120.25  o
  3  3  5  1  862.24  876.52  45.17  o
  3  3  -5  1  876.61  902.92  54.55  o
  3  3  5  2  137.67  146.89  32.00  o
  3  3  -5  2  139.30  79.09  33.94  <
  4  3  5  -2  33.80  -1.88  15.07  <
  4  3  -5  -2  34.35  -1.88  16.95  <
  4  3  5  -1  78.90  50.84  20.74  <
  4  3  -5  -1  62.20  50.84  24.49  <
  4  3  5  0  19.83  15.06  20.71  <
  4  3  -5  0  56.09  30.13  24.49  <
  4  3  5  1  36.68  -20.71  22.59  <
  4  3  -5  1  41.30  15.06  26.37  <
  4  3  5  2  0.34  -16.95  22.59  <
  4  3  -5  2  0.55  9.41  35.77  <
  5  3  5  -2  20.91  3.77  18.83  <
  5  3  -5  -2  18.90  -7.53  16.95  <
  5  3  5  -1  1233.03  1218.47  49.14  o
  5  3  -5  -1  1162.54  1184.40  50.79  o
  5  3  5  0  3767.83  3384.93  91.06  o
  5  3  -5  0  3404.22  3572.47  113.99  o
  5  3  5  1  622.14  576.59  49.14  o
  5  3  -5  1  603.01  644.41  69.62  o
  5  3  5  2  161.61  150.66  37.68  o
  5  3  -5  2  165.79  178.91  48.95  o
  6  3  5  -2  16.62  30.13  24.47  <
  6  3  -5  -2  18.94  32.01  22.59  <
  6  3  5  -1  2859.55  2933.32  82.47  o
  6  3  -5  -1  2856.83  2882.28  84.82  o
  6  3  5  0  602.39  384.39  51.40  o
  6  3  -5  0  485.71  486.07  54.64  o
  6  3  5  1  949.90  908.53  75.53  o
  6  3  -5  1  929.57  1064.95  71.11  o
  6  3  5  2  23.02  79.08  41.40  <
  6  3  -5  2  20.22  65.90  45.18  <
  7  3  5  -2  0.46  -35.77  20.70  <
  7  3  -5  -2  0.23  -16.95  20.71  <
  7  3  5  -1  386.32  382.41  43.34  o
  7  3  -5  -1  365.42  337.19  41.51  o
  7  3  5  0  6105.64  5860.92  174.78  o
  7  3  -5  0  5980.42  6186.16  176.32  o
  7  3  5  1  1109.53  1197.06  80.72  o
  7  3  -5  1  1109.89  1170.66  86.50  o
  7  3  5  2  122.96  120.52  45.20  <
  7  3  -5  2  136.27  122.40  43.32  <
  8  3  5  -2  1.08  -20.71  24.47  <
  8  3  -5  -2  1.59  13.18  26.36  <
  8  3  5  -1  119.68  60.26  33.93  <
  8  3  -5  -1  95.01  154.41  41.38  o
  8  3  5  0  20774.30  20947.70  399.95  o
  8  3  -5  0  20680.90  20864.80  403.65  o
  8  3  5  1  154.97  111.11  45.23  <
  8  3  -5  1  140.33  107.34  43.34  <
  8  3  5  2  17.14  -5.65  37.66  <
  8  3  -5  2  17.06  -13.18  37.66  <
  9  3  5  -2  48.49  35.78  32.02  <
  9  3  -5  -2  46.78  37.66  33.90  <
  9  3  5  -1  1370.24  1276.59  85.24  o
  9  3  -5  -1  1421.82  1344.55  81.44  o
  9  3  5  0  10644.50  10387.90  261.60  o
  9  3  -5  0  10673.60  10633.70  263.08  o
  9  3  5  1  576.98  631.12  77.13  o
  9  3  -5  1  591.61  454.03  68.09  o
  9  3  5  2  81.36  77.20  47.08  <
  9  3  -5  2  72.52  9.42  39.56  <
  10  3  5  -2  54.53  80.97  43.30  <
  10  3  -5  -2  57.41  54.61  35.78  <
  10  3  5  -1  1754.06  1765.48  99.91  o
  10  3  -5  -1  1731.68  1720.17  92.48  o
  10  3  5  0  5343.82  5032.15  178.41  o
  10  3  -5  0  5474.55  5417.00  182.16  o
  10  3  5  1  922.30  1008.19  95.87  o
  10  3  -5  1  931.71  806.56  88.89  o
  10  3  5  2  56.49  13.18  45.20  <
  10  3  -5  2  67.69  43.31  47.08  <
  11  3  5  -2  26.34  -47.07  33.88  <
  11  3  -5  -2  26.45  -20.71  30.12  <
  11  3  5  -1  670.28  753.63  84.59  o
  11  3  -5  -1  685.81  785.67  78.88  o
  11  3  5  0  3884.73  4173.85  160.55  o
  11  3  -5  0  3902.17  3937.73  160.38  o
  11  3  5  1  457.17  550.02  82.72  o
  11  3  -5  1  489.57  444.55  73.54  o
  11  3  5  2  65.15  64.02  54.61  <
  11  3  -5  2  61.56  62.14  50.84  <
  12  3  5  -2  63.42  -24.48  37.66  <
  12  3  -5  -2  66.86  60.26  39.55  <
  12  3  5  -1  271.51  246.72  60.29  o
  12  3  -5  -1  269.84  286.27  64.01  o
  12  3  5  0  1462.40  1366.80  107.79  o
  12  3  -5  0  1522.71  1504.49  111.30  o
  12  3  5  1  58.98  -64.02  43.29  <
  12  3  -5  1  75.24  30.13  47.09  <
  12  3  5  2  7.35  18.83  50.84  <
  12  3  -5  2  8.65  -24.48  47.07  <
  13  3  5  -2  3.63  111.09  52.68  <
  13  3  -5  -2  1.67  -20.71  41.42  <
  13  3  5  -1  1425.23  1462.86  114.87  o
  13  3  -5  -1  1481.03  1636.37  110.64  o
  13  3  5  0  2570.25  2496.25  141.86  o
  13  3  -5  0  2483.78  2437.59  137.95  o
  13  3  5  1  239.56  169.49  65.97  <
  13  3  -5  1  242.35  261.77  69.66  o
  13  3  5  2  53.29  71.55  60.25  <
  13  3  -5  2  47.18  56.49  60.25  <
  14  3  5  -2  17.68  43.31  54.60  <
  14  3  -5  -2  18.84  62.14  50.83  <
  14  3  5  -1  1253.12  1372.11  129.72  o
  14  3  -5  -1  1247.42  1208.13  113.20  o
  14  3  5  0  2392.97  2254.22  155.23  o
  14  3  -5  0  2269.48  2169.13  136.24  o
  14  3  5  1  369.94  299.46  77.30  o
  14  3  -5  1  369.58  367.27  82.87  o
  14  3  5  2  31.99  35.78  58.37  <
  14  3  -5  2  31.75  75.32  60.24  <
  15  3  5  -2  37.36  22.60  56.49  <
  15  3  -5  -2  45.74  -39.54  56.48  <
  15  3  5  -1  926.43  817.75  117.03  o
  15  3  -5  -1  961.82  962.86  131.90  o
  15  3  5  0  1121.41  989.34  126.55  o
  15  3  -5  0  1223.99  1094.96  122.82  o
  15  3  5  1  405.25  397.41  99.83  o
  15  3  -5  1  445.32  222.25  77.45  <
  15  3  5  2  70.49  88.50  75.31  <
  15  3  -5  2  67.35  79.09  73.43  <
  16  3  5  -2  10.08  111.09  75.29  <
  16  3  -5  -2  9.37  9.41  65.90  <
  16  3  5  -1  161.66  220.32  80.93  <
  16  3  -5  -1  149.34  254.22  95.97  <
  16  3  5  0  9567.51  9837.76  386.85  o
  16  3  -5  0  9532.25  9473.51  404.18  o
  16  3  5  1  35.65  -47.07  67.78  <
  16  3  -5  1  18.96  -77.20  67.77  <
  17  3  5  -2  27.37  86.61  77.19  <
  17  3  -5  -2  25.25  -30.13  79.08  <
  17  3  5  -1  1197.60  1087.35  141.57  o
  17  3  -5  -1  1204.11  1287.11  161.90  o
  1  4  5  -2  46.05  77.20  22.57  o
  1  4  -5  -2  43.28  28.25  20.72  <
  1  4  5  -1  2619.63  2699.58  86.24  o
  1  4  -5  -1  2514.36  2648.22  76.23  o
  1  4  5  0  1558.27  1873.05  81.19  o
  1  4  -5  0  1755.16  1569.72  69.10  o
  1  4  5  1  2614.43  2567.75  98.51  o
  1  4  -5  1  2677.69  2556.59  97.16  o
  1  4  5  2  140.95  112.99  37.69  <
  1  4  -5  2  145.79  88.51  35.83  <
  2  4  5  -2  50.47  -1.88  18.84  <
  2  4  -5  -2  48.27  9.42  22.61  <
  2  4  5  -1  2076.05  2170.93  69.07  o
  2  4  -5  -1  2122.61  2231.47  78.48  o
  2  4  5  0  3882.67  3729.40  122.31  o
  2  4  -5  0  3913.81  4041.59  108.44  o
  2  4  5  1  1286.48  1316.01  75.28  o
  2  4  -5  1  1297.19  1310.37  73.47  o
  2  4  5  2  98.36  77.21  35.79  <
  2  4  -5  2  90.31  75.32  35.79  <
  3  4  5  -2  111.79  82.86  22.63  o
  3  4  -5  -2  109.95  82.86  28.27  <
  3  4  5  -1  2192.26  2176.76  69.98  o
  3  4  -5  -1  2207.78  2354.27  89.62  o
  3  4  5  0  5348.17  4983.29  139.97  o
  3  4  -5  0  5074.24  5383.21  148.58  o
  3  4  5  1  2915.33  2893.16  100.26  o
  3  4  -5  1  2910.67  2768.50  106.76  o
  3  4  5  2  151.40  112.99  41.46  <
  3  4  -5  2  150.55  158.18  52.72  <
  4  4  5  -2  8.83  -1.88  20.71  <
  4  4  -5  -2  9.80  5.65  24.48  <
  4  4  5  -1  23.75  22.60  26.36  <
  4  4  -5  -1  31.68  -9.41  24.48  <
  4  4  5  0  996.34  848.21  70.25  o
  4  4  -5  0  951.52  1117.70  84.26  o
  4  4  5  1  31.23  39.54  37.66  <
  4  4  -5  1  28.43  47.07  39.54  <
  4  4  5  2  22.43  88.50  43.28  <
  4  4  -5  2  20.25  54.60  41.41  <
  5  4  5  -2  29.71  41.42  26.36  <
  5  4  -5  -2  27.73  -5.65  30.13  <
  5  4  5  -1  2428.31  2592.30  93.22  o
  5  4  -5  -1  2454.02  2533.85  110.92  o
  5  4  5  0  3343.87  3455.81  120.08  o
  5  4  -5  0  3280.25  3249.65  136.23  o
  5  4  5  1  2593.47  2508.63  111.88  o
  5  4  -5  1  2440.92  2489.39  120.52  o
  5  4  5  2  128.18  112.99  47.09  <
  5  4  -5  2  132.85  99.81  54.63  <
  6  4  5  -2  41.95  28.24  30.13  <
  6  4  -5  -2  39.46  -28.24  26.36  <
  6  4  5  -1  3703.45  3865.92  123.44  o
  6  4  -5  -1  3839.49  3562.08  115.80  o
  6  4  5  0  6195.93  6519.31  178.82  o
  6  4  -5  0  6196.17  5842.94  203.60  o
  6  4  5  1  877.31  955.41  88.35  o
  6  4  -5  1  888.86  821.62  92.50  o
  6  4  5  2  68.12  73.44  47.07  <
  6  4  -5  2  58.41  90.38  48.94  <
  7  4  5  -2  50.98  90.38  41.41  <
  7  4  -5  -2  49.17  50.84  37.66  <
  7  4  5  -1  848.39  949.80  82.62  o
  7  4  -5  -1  823.72  876.28  82.77  o
  7  4  5  0  1192.36  1379.86  87.85  o
  7  4  -5  0  1399.15  1248.15  91.08  o
  7  4  5  1  2593.23  2772.44  131.13  o
  7  4  -5  1  2541.86  2223.13  126.14  o
  7  4  5  2  81.38  135.58  54.58  <
  7  4  -5  2  84.64  71.55  58.38  <
  8  4  5  -2  0.72  11.30  33.89  <
  8  4  -5  -2  1.16  3.77  35.77  <
  8  4  5  -1  286.98  201.53  52.83  o
  8  4  -5  -1  292.21  261.80  58.42  o
  8  4  5  0  3855.96  4049.37  155.52  o
  8  4  -5  0  3974.53  3598.15  153.63  o
  8  4  5  1  251.32  295.68  62.10  o
  8  4  -5  1  260.67  197.75  56.56  o
  8  4  5  2  1.28  -28.24  41.42  <
  8  4  -5  2  1.05  37.66  54.60  <
  9  4  5  -2  115.10  37.66  41.46  <
  9  4  -5  -2  115.63  9.42  39.58  <
  9  4  5  -1  874.70  753.77  83.22  o
  9  4  -5  -1  896.27  829.16  88.74  o
  9  4  5  0  2218.73  2224.27  122.60  o
  9  4  -5  0  2259.60  2133.79  123.22  o
  9  4  5  1  1495.23  1602.46  114.61  o
  9  4  -5  1  1538.66  1412.10  109.80  o
  9  4  5  2  66.43  71.55  54.60  <
  9  4  -5  2  67.98  54.61  60.26  <
  10  4  5  -2  28.07  26.36  41.42  <
  10  4  -5  -2  23.37  41.42  43.30  <
  10  4  5  -1  912.31  872.48  94.32  o
  10  4  -5  -1  918.23  802.76  90.74  o
  10  4  5  0  83.53  148.76  58.34  <
  10  4  -5  0  123.01  28.25  43.35  <
  10  4  5  1  394.83  416.25  79.08  o
  10  4  -5  1  395.04  299.48  69.81  o
  10  4  5  2  32.48  -62.14  48.94  <
  10  4  -5  2  25.49  67.79  54.59  <
  11  4  5  -2  38.24  43.31  45.19  <
  11  4  -5  -2  40.02  9.41  41.43  <
  11  4  5  -1  713.97  823.32  95.85  o
  11  4  -5  -1  739.72  672.61  86.81  o
  11  4  5  0  2408.54  2316.70  136.26  o
  11  4  -5  0  2261.89  2416.40  135.10  o
  11  4  5  1  1124.83  1145.80  133.76  o
  11  4  -5  1  1156.43  1004.48  109.70  o
  11  4  5  2  96.22  52.72  60.27  <
  11  4  -5  2  97.54  58.37  56.50  <
  12  4  5  -2  8.38  5.65  45.19  <
  12  4  -5  -2  7.61  -35.78  41.42  <
  12  4  5  -1  682.47  604.74  88.69  o
  12  4  -5  -1  667.39  646.18  88.58  o
  12  4  5  0  186.88  -1.88  54.67  <
  12  4  -5  0  159.35  118.64  60.28  <
  12  4  5  1  152.58  212.79  82.82  <
  12  4  -5  1  149.20  133.70  65.92  <
  12  4  5  2  33.15  -48.96  58.36  <
  12  4  -5  2  30.03  -15.06  54.60  <
  13  4  5  -2  33.34  1.88  52.72  <
  13  4  -5  -2  32.35  45.19  54.60  <
  13  4  5  -1  622.67  644.26  96.04  o
  13  4  -5  -1  651.74  587.76  90.54  o
  13  4  5  0  3741.67  4231.43  187.90  o
  13  4  -5  0  3766.24  3585.74  180.36  o
  13  4  5  1  1168.97  1240.00  124.19  o
  13  4  -5  1  1132.54  1177.78  124.26  o
  13  4  5  2  95.43  -26.36  60.26  <
  13  4  -5  2  97.48  71.55  69.68  <
  14  4  5  -2  17.13  -1.88  52.72  <
  14  4  -5  -2  14.32  7.53  54.60  <
  14  4  5  -1  1077.85  1271.97  127.65  o
  14  4  -5  -1  1119.17  1060.95  118.86  o
  14  4  5  0  2507.21  2448.46  158.70  o
  14  4  -5  0  2507.69  2091.95  171.22  o
  14  4  5  1  416.98  293.82  83.00  o
  14  4  -5  1  420.15  348.44  88.60  o
  15  4  5  -2  93.14  28.25  62.15  <
  15  4  -5  -2  94.04  65.91  65.91  <
  15  4  5  -1  39.74  97.91  77.18  <
  15  4  -5  -1  29.22  28.24  65.90  <
  15  4  5  0  2066.86  1957.31  162.53  o
  15  4  -5  0  2153.83  2183.73  156.41  o
  16  4  5  -2  5.91  -37.66  71.55  <
  16  4  -5  -2  5.12  50.84  77.19  <
  1  5  5  -2  77.79  60.26  32.02  <
  1  5  -5  -2  74.32  37.66  26.38  <
  1  5  5  -1  397.57  348.47  50.95  o
  1  5  -5  -1  415.35  418.17  56.50  o
  1  5  5  0  11155.30  11449.80  274.50  o
  1  5  -5  0  10943.60  11826.00  243.98  o
  1  5  5  1  1056.86  1132.64  110.99  o
  1  5  -5  1  1081.12  1132.67  90.29  o
  1  5  5  2  177.27  141.24  64.05  <
  1  5  -5  2  169.28  295.65  62.01  o
  2  5  5  -2  20.83  13.18  30.13  <
  2  5  -5  -2  21.03  16.95  28.24  <
  2  5  5  -1  2023.35  1835.71  89.74  o
  2  5  -5  -1  2032.38  2267.78  92.87  o
  2  5  5  0  916.28  714.21  75.94  o
  2  5  -5  0  848.25  879.99  79.05  o
  2  5  5  1  372.28  312.66  66.00  o
  2  5  -5  1  381.72  254.27  75.47  o
  2  5  5  2  42.26  54.61  50.84  <
  2  5  -5  2  50.76  13.18  50.85  <
  3  5  5  -2  22.63  -9.41  28.24  <
  3  5  -5  -2  20.28  30.13  32.01  <
  3  5  5  -1  314.05  335.26  58.36  o
  3  5  -5  -1  313.88  280.64  54.67  o
  3  5  5  0  2829.33  3373.32  132.46  o
  3  5  -5  0  3144.86  3115.59  141.79  o
  3  5  5  1  1175.29  1436.19  104.65  o
  3  5  -5  1  1194.88  1500.29  132.97  o
  3  5  5  2  229.16  237.29  65.91  o
  3  5  -5  2  237.04  297.55  107.30  <
  4  5  5  -2  8.42  -20.71  30.12  <
  4  5  -5  -2  8.60  -11.30  33.89  <
  4  5  5  -1  55.11  86.62  41.41  <
  4  5  -5  -1  57.14  45.19  41.43  <
  4  5  5  0  332.74  468.98  67.58  o
  4  5  -5  0  335.51  397.41  69.60  o
  4  5  5  1  46.13  56.49  45.19  <
  4  5  -5  1  47.03  -5.65  50.84  <
  4  5  5  2  0.62  -9.41  43.31  <
  4  5  -5  2  0.71  9.41  75.32  <
  5  5  5  -2  32.82  -35.78  32.00  <
  5  5  -5  -2  31.23  -9.41  39.54  <
  5  5  5  -1  1078.40  1091.28  86.66  o
  5  5  -5  -1  1020.97  1159.07  103.26  o
  5  5  5  0  1384.46  1513.78  105.09  o
  5  5  -5  0  1465.54  1532.74  116.66  o
  5  5  5  1  741.13  638.69  88.76  o
  5  5  -5  1  729.20  815.78  101.56  o
  5  5  5  2  198.77  178.90  62.16  <
  5  5  -5  2  200.90  192.08  80.98  <
  6  5  5  -2  17.18  -20.71  35.77  <
  6  5  -5  -2  15.19  -13.18  41.42  <
  6  5  5  -1  2196.18  2471.46  123.11  o
  6  5  -5  -1  2161.03  2024.27  128.87  o
  6  5  5  0  949.87  1013.81  103.48  o
  6  5  -5  0  906.32  1091.03  114.50  o
  6  5  5  1  122.09  79.09  56.51  <
  6  5  -5  1  124.79  109.22  58.38  <
  6  5  5  2  10.93  41.42  56.48  <
  6  5  -5  2  19.64  -11.30  58.37  <
  7  5  5  -2  16.22  37.66  45.19  <
  7  5  -5  -2  16.79  92.26  48.93  <
  7  5  5  -1  454.86  433.24  71.61  o
  7  5  -5  -1  442.21  444.53  77.22  o
  7  5  5  0  3077.39  3082.56  152.87  o
  7  5  -5  0  2947.13  2933.12  158.62  o
  7  5  5  1  1013.10  919.58  109.51  o
  7  5  -5  1  1025.22  1149.49  120.30  o
  7  5  5  2  96.17  237.26  69.57  o
  7  5  -5  2  101.64  116.75  69.67  <
  8  5  5  -2  14.31  -16.95  37.66  <
  8  5  -5  -2  14.07  52.72  41.41  <
  8  5  5  -1  248.47  193.98  62.20  o
  8  5  -5  -1  201.54  284.36  71.48  o
  8  5  5  0  1284.30  1334.46  114.82  o
  8  5  -5  0  1275.89  1262.83  124.43  o
  8  5  5  1  105.33  -28.25  52.74  <
  8  5  -5  1  97.27  71.56  62.15  <
  8  5  5  2  5.87  13.18  56.49  <
  8  5  -5  2  5.28  26.36  62.13  <
  9  5  5  -2  23.21  -20.71  39.54  <
  9  5  -5  -2  20.65  3.77  41.43  <
  9  5  5  -1  1634.17  1497.00  115.50  o
  9  5  -5  -1  1650.30  1604.49  115.18  o
  9  5  5  0  6228.25  6395.06  229.60  o
  9  5  -5  0  6083.57  6036.79  238.69  o
  9  5  5  1  1023.00  1051.46  118.65  o
  9  5  -5  1  1038.12  966.67  120.75  o
  9  5  5  2  197.78  131.82  67.83  <
  9  5  -5  2  182.62  192.08  79.09  <
  10  5  5  -2  1.14  -16.95  43.31  <
  10  5  -5  -2  0.77  11.30  47.07  <
  10  5  5  -1  905.13  689.63  94.67  o
  10  5  -5  -1  921.32  908.21  103.67  o
  10  5  5  0  455.69  499.14  88.46  o
  10  5  -5  0  578.42  453.98  90.60  o
  10  5  5  1  164.09  122.40  73.46  <
  10  5  -5  1  166.90  101.69  73.47  <
  10  5  5  2  34.18  109.21  75.29  <
  10  5  -5  2  42.15  -30.13  67.78  <
  11  5  5  -2  21.70  -15.06  47.07  <
  11  5  -5  -2  21.14  37.66  52.72  <
  11  5  5  -1  816.73  721.60  100.05  o
  11  5  -5  -1  810.06  676.38  96.35  o
  11  5  5  0  3056.12  3228.91  172.77  o
  11  5  -5  0  3091.46  3002.53  181.57  o
  11  5  5  1  697.29  725.28  111.10  o
  11  5  -5  1  681.82  732.80  120.48  o
  12  5  5  -2  1.64  -28.24  52.72  <
  12  5  -5  -2  1.52  3.77  56.49  <
  12  5  5  -1  298.71  404.91  86.51  o
  12  5  -5  -1  317.54  210.93  71.66  <
  12  5  5  0  903.80  887.42  114.96  o
  12  5  -5  0  909.34  813.94  118.88  o
  13  5  5  -2  3.68  -45.19  58.36  <
  13  5  -5  -2  3.08  15.06  58.37  <
  13  5  5  -1  1669.67  1355.43  134.76  o
  13  5  -5  -1  1747.64  1728.79  141.46  o
  14  5  5  -2  1.84  -3.77  54.60  <
  14  5  -5  -2  1.94  28.24  67.78  <
  1  6  5  -2  23.32  -20.71  43.31  <
  1  6  -5  -2  24.75  52.72  37.65  <
  1  6  5  -1  4027.99  4384.79  202.03  o
  1  6  -5  -1  3885.91  4121.71  141.78  o
  1  6  5  0  123.87  32.01  62.17  <
  1  6  -5  0  77.73  58.37  58.38  <
  1  6  5  1  1053.51  1070.32  148.83  o
  1  6  -5  1  1064.63  1190.93  127.84  o
  1  6  5  2  147.61  0.00  118.65  <
  1  6  -5  2  139.54  -3.77  64.05  <
  2  6  5  -2  19.31  3.77  39.54  <
  2  6  -5  -2  16.60  71.55  52.71  <
  2  6  5  -1  1645.28  1713.87  112.85  o
  2  6  -5  -1  1766.24  1749.86  135.82  o
  2  6  5  0  195.23  214.68  65.89  o
  2  6  -5  0  204.91  318.26  73.33  o
  2  6  5  1  69.80  131.81  84.71  <
  2  6  -5  1  81.12  37.66  67.80  <
  2  6  5  2  34.09  -71.55  114.85  <
  2  6  -5  2  35.46  54.61  112.97  <
  3  6  5  -2  26.65  3.77  39.54  <
  3  6  -5  -2  25.64  118.62  52.68  <
  3  6  5  -1  3643.74  3844.97  159.25  o
  3  6  -5  -1  3634.13  3708.97  182.78  o
  3  6  5  0  316.21  265.55  67.86  o
  3  6  -5  0  316.63  280.62  114.91  <
  3  6  5  1  1266.52  998.87  111.89  o
  3  6  -5  1  1240.15  1176.00  156.55  o
  3  6  5  2  203.73  -103.57  128.05  <
  3  6  -5  2  196.81  80.98  86.67  <
  4  6  5  -2  35.19  30.13  41.43  <
  4  6  -5  -2  36.95  5.65  52.72  <
  4  6  5  -1  0.40  22.59  43.30  <
  4  6  -5  -1  0.49  -41.42  75.31  <
  4  6  5  0  738.55  968.35  110.66  o
  4  6  -5  0  698.21  1002.23  167.23  o
  4  6  5  1  35.96  43.31  64.02  <
  4  6  -5  1  34.31  3.77  71.55  <
  4  6  5  2  7.48  -18.83  75.31  <
  4  6  -5  2  6.20  37.66  67.78  <
  5  6  5  -2  47.89  11.30  41.43  <
  5  6  -5  -2  51.79  77.20  50.83  <
  5  6  5  -1  3071.20  3016.19  147.52  o
  5  6  -5  -1  3148.25  3237.22  169.43  o
  5  6  5  0  1710.30  1759.01  128.03  o
  5  6  -5  0  1705.18  2234.10  169.86  o
  5  6  5  1  804.08  958.95  142.92  o
  5  6  -5  1  763.81  868.49  139.24  o
  6  6  5  -2  28.30  24.48  48.96  <
  6  6  -5  -2  23.60  -3.77  50.84  <
  6  6  5  -1  1303.42  1456.95  120.15  o
  6  6  -5  -1  1469.55  1730.47  136.77  o
  6  6  5  0  66.62  47.07  58.38  <
  6  6  -5  0  46.76  167.58  90.34  <
  6  6  5  1  24.03  13.18  65.90  <
  6  6  -5  1  45.26  -7.53  79.09  <
  7  6  5  -2  30.09  -3.77  47.07  <
  7  6  -5  -2  30.03  58.37  54.60  <
  7  6  5  -1  1639.09  1872.05  127.32  o
  7  6  -5  -1  1678.39  2000.31  138.34  o
  7  6  5  0  627.05  860.88  108.81  o
  7  6  -5  0  729.80  845.87  139.23  o
  7  6  5  1  1342.06  1149.66  134.28  o
  7  6  -5  1  1357.03  1115.75  160.68  o
  8  6  5  -2  9.59  -26.36  48.95  <
  8  6  -5  -2  8.79  50.84  60.25  <
  8  6  5  -1  90.02  84.74  65.91  <
  8  6  -5  -1  91.65  129.93  69.65  <
  8  6  5  0  987.61  1207.80  133.28  o
  8  6  -5  0  1069.02  755.62  115.57  o
  9  6  5  -2  106.12  33.89  56.51  <
  9  6  -5  -2  110.89  50.84  64.04  <
  9  6  5  -1  1851.39  1676.17  136.35  o
  9  6  -5  -1  1810.39  1698.74  151.17  o
  9  6  5  0  299.21  453.87  95.87  o
  9  6  -5  0  424.95  387.99  97.98  o
  10  6  5  -2  19.53  -16.95  56.49  <
  10  6  -5  -2  16.60  -45.19  54.60  <
  10  6  5  -1  908.24  813.94  113.24  o
  10  6  -5  -1  954.02  947.74  128.14  o
  11  6  5  -2  72.11  15.06  64.03  <
  11  6  -5  -2  64.74  116.74  73.42  <
  12  6  5  -2  78.71  41.43  64.03  <
  12  6  -5  -2  72.59  43.31  80.97  <
  1  7  5  -2  126.16  82.86  75.34  <
  1  7  -5  -2  130.07  97.92  64.04  <
  1  7  5  -1  385.67  340.90  120.57  <
  1  7  -5  -1  403.55  408.71  90.40  o
  2  7  5  -2  107.70  109.22  69.67  <
  2  7  -5  -2  103.74  84.74  60.26  <
  2  7  5  -1  211.07  122.41  96.08  <
  2  7  -5  -1  184.20  244.81  122.37  <
  3  7  5  -2  96.78  24.48  54.62  <
  3  7  -5  -2  91.17  -13.18  111.10  <
  3  7  5  -1  660.99  881.61  176.81  o
  3  7  -5  -1  645.04  695.11  128.03  o
  4  7  5  -2  0.84  5.65  54.60  <
  4  7  -5  -2  0.58  0.00  71.55  <
  4  7  5  -1  65.79  103.56  82.84  <
  4  7  -5  -1  74.28  84.73  69.67  <
  5  7  5  -2  92.80  -24.48  64.03  <
  5  7  -5  -2  82.73  -24.48  73.44  <
  5  7  5  -1  923.76  959.02  139.36  o
  5  7  -5  -1  882.10  921.31  145.01  o
  6  7  5  -2  59.31  11.30  64.03  <
  6  7  -5  -2  50.27  41.42  77.20  <
  7  7  5  -2  168.12  137.47  69.69  <
  7  7  -5  -2  160.99  84.74  84.77  <
  8  7  5  -2  59.05  7.53  67.79  <
  8  7  -5  -2  59.84  -20.71  75.32  <
  0  0  6  0  3581.06  3434.14  141.83  o
  0  0  -6  0  3649.79  3667.15  136.97  o
  0  0  6  1  807.51  817.26  45.25  o
  0  0  -6  1  818.38  885.24  46.86  o
  0  0  6  2  111.70  152.56  26.31  o
  0  0  -6  2  116.60  161.98  24.41  o
  1  0  6  1  415.82  386.46  26.51  o
  1  0  -6  1  407.50  412.84  24.48  o
  1  0  6  2  5.18  15.06  13.18  <
  1  0  -6  2  5.20  -7.53  15.06  <
  2  0  6  0  560.43  433.74  38.14  o
  2  0  -6  0  576.63  441.31  38.18  o
  2  0  6  1  25.81  16.95  16.95  <
  2  0  -6  1  30.17  11.30  16.95  <
  2  0  6  2  2.34  7.53  18.83  <
  2  0  -6  2  2.41  -11.30  15.06  <
  3  0  6  1  112.25  92.29  16.98  o
  3  0  -6  1  116.24  92.29  20.75  o
  3  0  6  2  2.98  11.30  13.18  <
  3  0  -6  2  2.90  13.18  16.94  <
  4  0  6  0  5304.26  4811.51  125.38  o
  4  0  -6  0  5344.66  4943.44  126.34  o
  4  0  6  1  171.91  182.71  20.69  o
  4  0  -6  1  164.50  148.80  20.75  o
  4  0  6  2  12.89  56.49  15.03  o
  4  0  -6  2  14.77  41.42  16.93  <
  5  0  6  1  506.21  507.01  30.15  o
  5  0  -6  1  512.44  565.44  31.80  o
  5  0  6  2  7.31  -5.65  13.18  <
  5  0  -6  2  6.35  7.53  15.06  <
  6  0  6  0  15536.70  15837.20  289.86  o
  6  0  -6  0  15462.10  15564.20  288.81  o
  6  0  6  1  1825.30  1837.98  48.99  o
  6  0  -6  1  1806.39  1970.15  51.28  o
  6  0  6  2  11.17  -11.30  15.06  <
  6  0  -6  2  10.92  11.30  16.95  <
  7  0  6  1  288.52  339.08  31.89  o
  7  0  -6  1  289.13  372.98  29.88  o
  7  0  6  2  5.50  0.00  15.06  <
  7  0  -6  2  5.61  -9.41  15.06  <
  8  0  6  0  9297.30  9612.67  211.87  o
  8  0  -6  0  9328.08  9288.71  208.45  o
  8  0  6  1  1939.76  1922.08  58.69  o
  8  0  -6  1  1917.39  1940.90  56.43  o
  8  0  6  2  32.26  13.18  18.83  <
  8  0  -6  2  31.61  24.48  26.36  <
  9  0  6  1  61.81  26.36  22.61  <
  9  0  -6  1  72.98  54.61  26.37  <
  9  0  6  2  2.07  9.41  22.59  <
  9  0  -6  2  2.85  -7.53  24.48  <
  10  0  6  0  1953.80  1711.71  93.72  o
  10  0  -6  0  1888.72  1796.50  124.91  o
  10  0  6  1  564.01  531.33  52.85  o
  10  0  -6  1  577.21  552.06  58.47  o
  10  0  6  2  101.00  13.18  28.28  <
  10  0  -6  2  102.41  33.90  30.16  <
  11  0  6  1  252.83  271.21  45.17  o
  11  0  -6  1  236.49  210.94  52.76  o
  11  0  6  2  9.56  -1.88  28.24  <
  11  0  -6  2  8.96  -22.59  37.66  <
  12  0  6  0  1802.07  2150.33  149.64  o
  12  0  -6  0  1879.49  2088.24  176.69  o
  12  0  6  1  303.50  310.77  48.96  o
  12  0  -6  1  343.55  342.80  67.81  o
  12  0  6  2  56.99  45.19  33.90  <
  12  0  -6  2  62.07  97.92  47.06  <
  13  0  6  1  393.78  380.48  60.30  o
  13  0  -6  1  356.99  497.24  80.78  o
  13  0  6  2  16.11  -56.49  33.87  <
  13  0  -6  2  15.07  5.65  47.07  <
  14  0  6  0  15738.70  15795.50  482.32  o
  14  0  -6  0  15731.70  16224.70  576.49  o
  14  0  6  1  262.74  308.86  71.52  o
  14  0  -6  1  273.21  306.98  77.18  o
  14  0  6  2  2.38  22.59  45.19  <
  14  0  -6  2  1.21  54.60  56.48  <
  15  0  6  1  100.05  -28.25  52.73  <
  15  0  -6  1  99.23  107.33  64.02  <
  15  0  6  2  29.62  65.90  56.48  <
  15  0  -6  2  31.24  -5.65  56.49  <
  16  0  6  0  1047.31  908.28  171.69  o
  16  0  -6  0  1020.52  927.11  177.26  o
  16  0  6  1  665.02  474.73  115.15  o
  16  0  -6  1  650.69  755.42  116.62  o
  16  0  6  2  16.91  -54.60  56.48  <
  16  0  -6  2  17.54  45.19  64.01  <
  17  0  6  1  86.44  43.31  80.98  <
  17  0  -6  1  106.01  197.72  82.80  <
  17  0  6  2  7.82  5.65  79.08  <
  17  0  -6  2  6.03  -80.96  60.23  <
  18  0  -6  0  6886.51  7354.81  427.42  o
  18  0  6  1  484.08  582.01  161.90  o
  18  0  -6  1  485.55  450.17  111.17  o
  18  0  6  2  123.49  22.60  94.17  <
  18  0  -6  2  126.44  69.67  84.75  <
  0  1  6  -2  37.62  24.48  22.60  <
  0  1  -6  -2  35.24  32.01  20.72  <
  0  1  6  -1  2507.92  2378.24  69.49  o
  0  1  -6  -1  2479.13  2588.54  67.17  o
  0  1  6  0  371912.00  347527.00  6525.82  o
  0  1  -6  0  371962.00  351595.00  5292.68  o
  0  1  6  1  1448.40  1350.87  76.05  o
  0  1  -6  1  1448.48  1373.54  51.56  o
  0  1  6  2  140.85  135.61  33.91  o
  0  1  -6  2  148.61  209.07  30.03  o
  1  1  6  -2  1.80  1.88  15.06  <
  1  1  -6  -2  1.95  -7.53  13.18  <
  1  1  6  -1  189.38  188.39  20.73  o
  1  1  -6  -1  186.42  199.69  24.46  o
  1  1  6  0  648.89  656.35  39.57  o
  1  1  -6  0  592.70  705.28  35.27  o
  1  1  6  1  564.23  563.72  33.94  o
  1  1  -6  1  555.29  608.96  33.69  o
  1  1  6  2  40.35  26.36  15.07  <
  1  1  -6  2  42.22  16.95  13.19  <
  2  1  6  -2  3.16  -7.53  13.18  <
  2  1  -6  -2  3.25  16.95  16.94  <
  2  1  6  -1  81.02  67.80  20.73  o
  2  1  -6  -1  80.50  94.16  22.58  o
  2  1  6  0  1005.88  1004.17  47.20  o
  2  1  -6  0  1005.50  1038.14  41.31  o
  2  1  6  1  49.03  47.08  20.72  <
  2  1  -6  1  50.42  41.43  16.95  <
  2  1  6  2  7.27  13.18  18.83  <
  2  1  -6  2  7.89  5.65  13.18  <
  3  1  6  -2  9.27  9.41  11.30  <
  3  1  -6  -2  8.25  5.65  13.18  <
  3  1  6  -1  45.72  30.13  13.19  <
  3  1  -6  -1  43.92  48.96  16.94  <
  3  1  6  0  190.88  218.51  22.54  o
  3  1  -6  0  252.13  177.09  24.66  o
  3  1  6  1  92.55  105.46  18.81  o
  3  1  -6  1  84.39  107.34  20.69  o
  3  1  6  2  14.63  26.36  20.71  <
  3  1  -6  2  16.68  -1.88  15.06  <
  4  1  6  -2  29.18  9.42  11.31  <
  4  1  -6  -2  31.80  0.00  13.19  <
  4  1  6  -1  1840.31  1841.31  45.36  o
  4  1  -6  -1  1840.01  1871.56  46.93  o
  4  1  6  0  71779.60  73724.80  703.28  o
  4  1  -6  0  71851.60  73671.60  732.23  o
  4  1  6  1  1.46  -20.71  13.17  <
  4  1  -6  1  3.43  -13.18  16.94  <
  4  1  6  2  105.56  135.59  20.67  o
  4  1  -6  2  104.84  135.59  24.44  o
  5  1  6  -2  9.94  1.88  13.18  <
  5  1  -6  -2  11.07  13.18  15.06  <
  5  1  6  -1  376.05  382.51  28.24  o
  5  1  -6  -1  369.83  467.29  31.68  o
  5  1  6  0  6.57  11.30  15.06  <
  5  1  -6  0  22.49  3.77  13.18  <
  5  1  6  1  138.40  193.98  24.38  o
  5  1  -6  1  160.60  167.62  22.59  o
  5  1  6  2  85.39  43.31  16.99  <
  5  1  -6  2  82.64  43.31  18.86  <
  6  1  6  -2  14.19  5.65  15.06  <
  6  1  -6  -2  13.47  9.41  15.06  <
  6  1  6  -1  47.20  54.61  16.94  o
  6  1  -6  -1  38.84  47.08  18.83  <
  6  1  6  0  228.08  207.20  24.54  o
  6  1  -6  0  223.42  171.41  24.59  o
  6  1  6  1  39.91  56.49  18.82  <
  6  1  -6  1  35.60  48.96  18.82  <
  6  1  6  2  15.25  20.71  18.83  <
  6  1  -6  2  15.62  13.18  18.83  <
  7  1  6  -2  75.90  33.90  16.98  <
  7  1  -6  -2  78.01  32.01  18.86  <
  7  1  6  -1  886.08  905.04  39.48  o
  7  1  -6  -1  921.99  939.03  41.38  o
  7  1  6  0  1371.79  1300.01  49.57  o
  7  1  -6  0  1255.63  1477.11  49.28  o
  7  1  6  1  386.61  365.48  41.50  o
  7  1  -6  1  373.91  365.48  43.35  o
  7  1  6  2  1.17  -22.59  18.82  <
  7  1  -6  2  1.17  -20.71  24.47  <
  8  1  6  -2  58.39  105.45  22.55  o
  8  1  -6  -2  55.57  47.08  18.84  <
  8  1  6  -1  115.13  67.79  22.65  <
  8  1  -6  -1  99.83  47.08  24.52  <
  8  1  6  0  73050.10  73458.20  796.13  o
  8  1  -6  0  73080.90  72362.70  918.78  o
  8  1  6  1  291.57  267.47  37.72  o
  8  1  -6  1  292.84  263.71  39.61  o
  8  1  6  2  54.81  75.32  26.35  <
  8  1  -6  2  57.64  41.43  28.25  <
  9  1  6  -2  6.69  -1.88  20.71  <
  9  1  -6  -2  4.73  -11.30  20.71  <
  9  1  6  -1  417.52  487.93  39.34  o
  9  1  -6  -1  460.26  429.55  45.30  o
  9  1  6  0  686.72  725.53  52.63  o
  9  1  -6  0  746.36  768.93  58.35  o
  9  1  6  1  145.88  154.42  32.00  o
  9  1  -6  1  155.79  118.64  28.29  o
  9  1  6  2  40.33  32.01  26.36  <
  9  1  -6  2  38.40  32.01  32.01  <
  10  1  6  -2  28.52  3.77  20.72  <
  10  1  -6  -2  24.66  -5.65  28.25  <
  10  1  6  -1  81.91  90.39  32.01  <
  10  1  -6  -1  89.88  120.52  37.64  o
  10  1  6  0  6321.82  6288.73  152.08  o
  10  1  -6  0  6373.26  6376.34  172.56  o
  10  1  6  1  153.36  190.20  37.62  o
  10  1  -6  1  150.03  80.98  33.95  <
  10  1  6  2  39.87  30.13  35.78  <
  10  1  -6  2  37.67  -48.96  26.34  <
  11  1  6  -2  25.30  -1.88  28.25  <
  11  1  -6  -2  19.98  7.53  32.01  <
  11  1  6  -1  491.99  454.01  50.96  o
  11  1  -6  -1  467.20  465.30  65.94  o
  11  1  6  0  822.21  780.19  66.09  o
  11  1  -6  0  804.91  751.91  75.52  o
  11  1  6  1  25.81  -5.65  32.01  <
  11  1  -6  1  14.32  3.77  30.13  <
  11  1  6  2  43.81  -5.65  35.78  <
  11  1  -6  2  49.50  -1.88  30.13  <
  12  1  6  -2  71.11  -3.77  33.91  <
  12  1  -6  -2  71.72  26.36  41.44  <
  12  1  6  -1  188.70  141.24  39.60  o
  12  1  -6  -1  185.58  80.98  45.27  <
  12  1  6  0  51232.70  49523.50  722.07  o
  12  1  -6  0  51279.20  50517.80  776.27  o
  12  1  6  1  250.63  165.73  50.94  o
  12  1  -6  1  246.52  197.75  52.79  o
  12  1  6  2  14.13  45.19  43.30  <
  12  1  -6  2  15.30  -7.53  35.78  <
  13  1  6  -2  27.87  -16.95  33.89  <
  13  1  -6  -2  28.08  48.96  48.95  <
  13  1  6  -1  691.21  717.83  75.30  o
  13  1  -6  -1  668.59  631.15  90.50  o
  13  1  6  0  336.29  363.51  67.77  o
  13  1  -6  0  300.17  301.34  71.57  o
  13  1  6  1  190.48  137.47  54.65  <
  13  1  -6  1  166.24  114.87  50.88  <
  13  1  6  2  58.93  28.24  50.85  <
  13  1  -6  2  59.57  0.00  41.43  <
  14  1  6  -2  14.61  -16.95  43.31  <
  14  1  -6  -2  17.02  -20.71  50.84  <
  14  1  6  -1  373.96  261.80  66.06  o
  14  1  -6  -1  379.93  372.93  81.00  o
  14  1  6  0  4383.76  4726.59  196.30  o
  14  1  -6  0  4430.43  4757.02  204.03  o
  14  1  6  1  74.47  64.02  56.49  <
  14  1  -6  1  77.09  69.67  54.61  <
  14  1  6  2  8.49  28.24  45.19  <
  14  1  -6  2  10.62  -33.89  43.30  <
  15  1  6  -2  79.79  -18.83  47.08  <
  15  1  -6  -2  81.15  124.28  65.89  <
  15  1  6  -1  255.61  237.29  73.46  o
  15  1  -6  -1  236.66  233.52  77.22  o
  15  1  6  0  329.44  282.51  77.27  o
  15  1  -6  0  301.46  316.40  84.74  o
  15  1  6  1  90.46  41.43  60.27  <
  15  1  -6  1  84.33  80.97  67.79  <
  15  1  6  2  7.58  3.77  54.60  <
  15  1  -6  2  8.04  3.77  62.14  <
  16  1  6  -2  34.28  65.90  73.43  <
  16  1  -6  -2  32.33  -15.06  58.37  <
  16  1  6  -1  8.79  26.36  69.67  <
  16  1  -6  -1  5.72  16.95  64.02  <
  16  1  6  0  6822.66  7250.88  267.64  o
  16  1  -6  0  6841.17  7326.69  280.62  o
  16  1  6  1  15.19  -45.19  58.36  <
  16  1  -6  1  7.32  47.07  67.78  <
  16  1  6  2  88.08  75.32  67.79  <
  16  1  -6  2  87.67  86.62  75.32  <
  17  1  6  -2  17.50  -56.49  86.61  <
  17  1  -6  -2  17.53  37.66  71.55  <
  17  1  6  -1  509.85  721.42  133.46  o
  17  1  -6  -1  561.53  510.47  107.44  o
  17  1  6  0  303.35  369.13  114.83  o
  17  1  -6  0  334.98  259.90  97.99  <
  17  1  6  1  46.46  62.14  73.43  <
  17  1  -6  1  52.52  52.72  82.85  <
  17  1  6  2  70.96  -22.60  64.02  <
  17  1  -6  2  65.85  -54.61  82.85  <
  18  1  6  -2  96.68  -37.66  109.22  <
  18  1  -6  -2  106.76  79.09  84.74  <
  18  1  6  -1  29.52  -9.41  103.56  <
  18  1  -6  -1  21.78  88.50  86.60  <
  18  1  6  0  3238.20  3595.17  247.78  o
  18  1  -6  0  3175.68  3551.60  215.43  o
  0  2  6  -2  170.82  156.35  39.57  o
  0  2  -6  -2  170.58  129.97  24.55  o
  0  2  6  -1  3644.18  3486.65  115.18  o
  0  2  -6  -1  3643.45  3503.72  83.22  o
  0  2  6  0  25.58  289.98  46.77  o
  0  2  -6  0  214.58  154.46  30.23  o
  0  2  6  1  2064.06  1931.20  63.47  o
  0  2  -6  1  2116.76  2126.03  73.63  o
  0  2  6  2  36.93  47.07  22.59  <
  0  2  -6  2  40.32  16.95  24.49  <
  1  2  6  -2  15.54  20.71  16.95  <
  1  2  -6  -2  16.49  39.54  16.94  <
  1  2  6  -1  1177.12  1253.44  46.66  o
  1  2  -6  -1  1187.86  1179.84  35.94  o
  1  2  6  0  14953.70  15580.20  217.08  o
  1  2  -6  0  15856.00  15135.10  212.35  o
  1  2  6  1  358.25  342.90  32.07  o
  1  2  -6  1  353.48  367.39  28.21  o
  1  2  6  2  85.56  50.84  22.62  <
  1  2  -6  2  82.64  58.38  18.85  o
  2  2  6  -2  2.24  -3.77  18.83  <
  2  2  -6  -2  2.15  -24.48  13.17  <
  2  2  6  -1  106.05  143.13  26.32  o
  2  2  -6  -1  102.66  122.41  22.57  o
  2  2  6  0  234.57  212.86  28.30  o
  2  2  -6  0  234.75  216.63  22.65  o
  2  2  6  1  113.53  143.13  24.44  o
  2  2  -6  1  114.90  118.64  16.94  o
  2  2  6  2  2.89  -20.71  18.82  <
  2  2  -6  2  2.81  5.65  16.95  <
  3  2  6  -2  19.74  58.37  16.92  o
  3  2  -6  -2  21.85  43.31  18.82  <
  3  2  6  -1  1191.66  1260.72  54.31  o
  3  2  -6  -1  1222.01  1209.83  43.50  o
  3  2  6  0  15621.00  15720.50  230.44  o
  3  2  -6  0  15194.60  15242.80  217.63  o
  3  2  6  1  78.69  67.79  22.61  <
  3  2  -6  1  63.79  94.15  20.68  o
  3  2  6  2  68.09  52.73  22.61  <
  3  2  -6  2  69.81  45.19  20.73  <
  4  2  6  -2  31.53  33.89  15.06  <
  4  2  -6  -2  34.02  32.01  20.71  <
  4  2  6  -1  3135.95  3234.40  57.25  o
  4  2  -6  -1  3138.19  3192.75  73.23  o
  4  2  6  0  15377.90  15609.00  196.04  o
  4  2  -6  0  15380.40  15406.20  229.37  o
  4  2  6  1  1400.40  1371.78  45.52  o
  4  2  -6  1  1392.80  1307.61  51.54  o
  4  2  6  2  43.55  7.53  20.72  <
  4  2  -6  2  35.07  7.53  22.60  <
  5  2  6  -2  42.44  1.88  15.08  <
  5  2  -6  -2  40.14  15.06  15.07  <
  5  2  6  -1  404.55  390.02  30.20  o
  5  2  -6  -1  362.51  467.24  31.65  o
  5  2  6  0  11944.90  11348.10  168.55  o
  5  2  -6  0  11488.70  11702.40  166.64  o
  5  2  6  1  542.92  655.75  41.00  o
  5  2  -6  1  619.54  612.48  45.26  o
  5  2  6  2  82.77  69.67  26.37  <
  5  2  -6  2  89.45  99.80  39.54  <
  6  2  6  -2  19.37  0.00  15.07  <
  6  2  -6  -2  18.74  28.24  16.94  <
  6  2  6  -1  594.44  574.81  35.89  o
  6  2  -6  -1  570.14  586.09  35.74  o
  6  2  6  0  6769.26  6707.54  126.36  o
  6  2  -6  0  6765.39  6861.50  166.26  o
  6  2  6  1  547.02  591.66  50.74  o
  6  2  -6  1  548.26  631.23  63.86  o
  6  2  6  2  34.47  13.18  26.37  <
  6  2  -6  2  33.97  -9.41  32.01  <
  7  2  6  -2  16.56  0.00  16.95  <
  7  2  -6  -2  16.14  3.77  22.60  <
  7  2  6  -1  608.82  531.43  39.86  o
  7  2  -6  -1  585.59  557.79  50.96  o
  7  2  6  0  9411.11  9072.70  161.54  o
  7  2  -6  0  9072.30  9167.75  204.67  o
  7  2  6  1  300.27  386.14  45.02  o
  7  2  -6  1  292.98  416.27  56.29  o
  7  2  6  2  41.09  26.36  26.37  <
  7  2  -6  2  46.43  41.43  39.54  <
  8  2  6  -2  50.13  11.30  22.61  <
  8  2  -6  -2  45.86  20.71  26.37  <
  8  2  6  -1  100.71  99.81  26.36  o
  8  2  -6  -1  89.15  118.64  31.99  o
  8  2  6  0  1751.03  1858.63  76.69  o
  8  2  -6  0  1814.07  1941.80  80.34  o
  8  2  6  1  4057.77  3989.70  106.62  o
  8  2  -6  1  4051.50  4002.91  123.39  o
  8  2  6  2  28.82  41.42  33.89  <
  8  2  -6  2  25.79  1.88  33.89  <
  9  2  6  -2  5.90  -18.83  24.47  <
  9  2  -6  -2  3.54  -24.48  18.82  <
  9  2  6  -1  396.46  359.80  39.65  o
  9  2  -6  -1  354.52  450.20  50.65  o
  9  2  6  0  4391.67  4238.66  120.67  o
  9  2  -6  0  4518.09  4292.26  138.18  o
  9  2  6  1  358.92  278.77  49.11  o
  9  2  -6  1  317.55  323.97  52.73  o
  9  2  6  2  22.70  26.36  35.78  <
  9  2  -6  2  25.28  28.24  37.66  <
  10  2  6  -2  42.74  39.54  30.13  <
  10  2  -6  -2  41.52  0.00  28.25  <
  10  2  6  -1  413.88  376.75  54.70  o
  10  2  -6  -1  426.85  359.80  49.12  o
  10  2  6  0  829.96  895.15  80.85  o
  10  2  -6  0  786.73  780.16  77.28  o
  10  2  6  1  112.73  122.40  47.07  <
  10  2  -6  1  116.47  56.49  37.69  <
  10  2  6  2  19.14  -54.60  33.88  <
  10  2  -6  2  20.13  13.18  39.54  <
  11  2  6  -2  58.63  26.36  32.02  <
  11  2  -6  -2  61.04  41.43  35.78  <
  11  2  6  -1  891.63  942.29  88.43  o
  11  2  -6  -1  918.63  844.32  66.22  o
  11  2  6  0  4339.59  4428.43  160.07  o
  11  2  -6  0  4399.21  4300.10  150.15  o
  11  2  6  1  57.58  71.55  45.19  <
  11  2  -6  1  68.22  90.38  47.06  <
  11  2  6  2  31.27  73.43  48.94  <
  11  2  -6  2  31.44  5.65  39.54  <
  12  2  6  -2  74.35  -9.42  39.55  <
  12  2  -6  -2  80.87  -3.77  37.68  <
  12  2  6  -1  1055.86  1059.23  96.11  o
  12  2  -6  -1  1057.79  1025.31  86.80  o
  12  2  6  0  1661.15  1606.66  107.71  o
  12  2  -6  0  1719.39  1802.87  105.23  o
  12  2  6  1  1354.97  1312.06  100.07  o
  12  2  -6  1  1391.75  1338.50  101.99  o
  12  2  6  2  20.87  -37.66  39.53  <
  12  2  -6  2  25.28  0.00  41.43  <
  13  2  6  -2  47.13  28.24  43.31  <
  13  2  -6  -2  48.72  13.18  41.43  <
  13  2  6  -1  115.22  118.63  50.84  <
  13  2  -6  -1  143.07  86.62  47.11  <
  13  2  6  0  3840.77  3823.54  177.67  o
  13  2  -6  0  4011.15  3967.69  159.00  o
  13  2  6  1  424.70  423.80  82.88  o
  13  2  -6  1  442.26  425.69  77.25  o
  13  2  6  2  63.23  11.30  43.32  <
  13  2  -6  2  61.05  99.80  52.71  <
  14  2  6  -2  5.59  33.89  48.95  <
  14  2  -6  -2  5.61  -24.48  50.84  <
  14  2  6  -1  274.18  188.33  60.35  o
  14  2  -6  -1  279.43  280.61  67.80  o
  14  2  6  0  9185.27  9541.58  273.70  o
  14  2  -6  0  9171.02  9752.02  256.05  o
  14  2  6  1  359.77  391.75  75.29  o
  14  2  -6  1  363.05  408.70  79.04  o
  14  2  6  2  5.58  16.95  48.95  <
  14  2  -6  2  4.18  -52.72  48.94  <
  15  2  6  -2  9.38  -52.72  50.83  <
  15  2  -6  -2  8.40  -16.95  62.13  <
  15  2  6  -1  404.00  299.47  75.46  o
  15  2  -6  -1  396.76  346.56  86.70  o
  15  2  6  0  4496.47  4678.26  193.46  o
  15  2  -6  0  4333.06  4420.74  220.57  o
  15  2  6  1  511.30  440.77  86.75  o
  15  2  -6  1  474.91  485.96  101.70  o
  15  2  6  2  12.03  82.85  62.12  <
  15  2  -6  2  15.81  24.48  64.02  <
  16  2  6  -2  31.08  -35.78  60.25  <
  16  2  -6  -2  30.73  -41.42  65.90  <
  16  2  6  -1  100.99  175.12  73.40  <
  16  2  -6  -1  99.82  48.96  71.57  <
  16  2  6  0  669.86  732.81  109.15  o
  16  2  -6  0  667.17  646.15  137.55  o
  16  2  6  1  1883.65  1572.50  142.39  o
  16  2  -6  1  1852.92  1958.98  203.36  o
  16  2  6  2  57.71  28.24  60.26  <
  16  2  -6  2  52.52  24.48  86.62  <
  17  2  6  -2  9.12  -50.84  67.78  <
  17  2  -6  -2  7.08  77.20  80.95  <
  17  2  6  -1  94.73  -50.84  65.90  <
  17  2  -6  -1  88.13  80.97  84.74  <
  17  2  6  0  1103.42  970.46  132.18  o
  17  2  -6  0  1061.22  934.63  160.37  o
  17  2  6  1  301.46  235.41  88.57  <
  17  2  -6  1  284.39  461.40  127.91  o
  0  3  6  -2  27.11  28.24  28.24  <
  0  3  -6  -2  25.63  -18.83  16.94  <
  0  3  6  -1  3417.86  3356.87  85.84  o
  0  3  -6  -1  3306.79  3380.88  93.95  o
  0  3  6  0  118363.00  117860.00  2505.34  o
  0  3  -6  0  118479.00  119049.00  1738.31  o
  0  3  6  1  202.82  103.59  45.28  <
  0  3  -6  1  195.77  101.70  34.00  o
  0  3  6  2  364.07  421.95  71.49  o
  0  3  -6  2  373.66  414.42  56.43  o
  1  3  6  -2  67.28  28.25  16.97  <
  1  3  -6  -2  69.40  11.30  13.22  <
  1  3  6  -1  195.83  210.95  22.57  o
  1  3  -6  -1  209.08  194.00  24.52  o
  1  3  6  0  1085.64  1018.35  51.28  o
  1  3  -6  0  966.96  1004.98  45.03  o
  1  3  6  1  2906.49  2933.29  92.38  o
  1  3  -6  1  2976.51  2999.71  73.47  o
  1  3  6  2  51.66  -5.65  24.49  <
  1  3  -6  2  53.89  47.08  26.37  <
  2  3  6  -2  10.09  9.41  20.71  <
  2  3  -6  -2  10.10  13.18  15.06  <
  2  3  6  -1  122.15  97.93  24.51  o
  2  3  -6  -1  122.20  99.81  18.87  o
  2  3  6  0  2368.13  2486.18  76.46  o
  2  3  -6  0  2349.38  2533.34  66.20  o
  2  3  6  1  7.76  -15.06  24.48  <
  2  3  -6  1  7.41  -1.88  18.83  <
  2  3  6  2  1.89  -3.77  28.24  <
  2  3  -6  2  2.02  -7.53  22.59  <
  3  3  6  -2  44.21  35.78  18.83  <
  3  3  -6  -2  46.08  48.96  18.83  <
  3  3  6  -1  494.67  472.96  39.64  o
  3  3  -6  -1  474.22  474.83  35.80  o
  3  3  6  0  1974.73  2182.51  77.80  o
  3  3  -6  0  2055.77  2003.37  72.14  o
  3  3  6  1  2091.75  2169.08  71.12  o
  3  3  -6  1  2075.83  2114.29  77.12  o
  3  3  6  2  22.09  32.01  28.24  <
  3  3  -6  2  26.60  22.60  28.25  <
  4  3  6  -2  31.49  22.60  15.07  <
  4  3  -6  -2  34.14  37.66  18.83  <
  4  3  6  -1  349.63  348.51  33.91  o
  4  3  -6  -1  364.46  335.33  37.75  o
  4  3  6  0  4037.08  4382.05  102.23  o
  4  3  -6  0  4123.49  4331.43  123.04  o
  4  3  6  1  4.18  -13.18  22.59  <
  4  3  -6  1  10.09  -9.41  24.48  <
  4  3  6  2  429.32  450.22  52.70  o
  4  3  -6  2  422.64  491.66  63.91  o
  5  3  6  -2  67.13  52.73  20.72  <
  5  3  -6  -2  66.16  65.91  22.60  <
  5  3  6  -1  334.70  273.14  34.05  o
  5  3  -6  -1  305.49  408.76  43.09  o
  5  3  6  0  568.99  657.60  48.69  o
  5  3  -6  0  646.47  514.45  62.50  o
  5  3  6  1  2288.19  2441.01  79.97  o
  5  3  -6  1  2333.86  2295.76  105.95  o
  5  3  6  2  60.08  124.28  39.50  o
  5  3  -6  2  59.85  47.08  37.66  <
  6  3  6  -2  0.19  20.71  20.71  <
  6  3  -6  -2  0.44  -16.95  26.36  <
  6  3  6  -1  481.29  491.74  48.96  o
  6  3  -6  -1  478.53  527.53  62.07  o
  6  3  6  0  298.41  261.81  43.38  o
  6  3  -6  0  296.49  278.77  52.76  o
  6  3  6  1  132.93  109.22  37.68  <
  6  3  -6  1  130.01  128.05  45.20  <
  6  3  6  2  9.94  5.65  37.66  <
  6  3  -6  2  8.54  65.90  43.29  <
  7  3  6  -2  95.77  28.25  26.40  <
  7  3  -6  -2  100.79  20.71  32.04  <
  7  3  6  -1  759.86  793.42  58.30  o
  7  3  -6  -1  781.38  861.29  80.82  o
  7  3  6  0  3391.57  3341.60  121.33  o
  7  3  -6  0  3291.07  3602.02  139.68  o
  7  3  6  1  2358.70  2204.65  100.96  o
  7  3  -6  1  2369.02  2504.79  125.76  o
  7  3  6  2  49.22  11.30  33.90  <
  7  3  -6  2  52.18  48.96  50.84  <
  8  3  6  -2  1.01  9.41  26.36  <
  8  3  -6  -2  2.03  5.65  28.24  <
  8  3  6  -1  1044.00  1093.35  71.44  o
  8  3  -6  -1  1033.07  1053.75  80.99  o
  8  3  6  0  18193.00  18367.10  341.02  o
  8  3  -6  0  18153.60  18080.50  369.40  o
  8  3  6  1  51.02  26.36  35.78  <
  8  3  -6  1  54.46  30.13  41.43  <
  8  3  6  2  181.67  225.99  52.68  o
  8  3  -6  2  183.83  184.55  60.26  o
  9  3  6  -2  2.07  -24.48  26.36  <
  9  3  -6  -2  2.75  -3.77  30.13  <
  9  3  6  -1  245.29  261.79  50.83  o
  9  3  -6  -1  263.30  244.84  50.88  o
  9  3  6  0  1609.63  1567.18  92.60  o
  9  3  -6  0  1616.62  1712.41  101.42  o
  9  3  6  1  1780.17  1742.71  96.37  o
  9  3  -6  1  1740.59  1740.76  105.61  o
  9  3  6  2  21.01  43.31  41.42  <
  9  3  -6  2  20.93  28.24  50.84  <
  10  3  6  -2  5.99  -32.01  33.89  <
  10  3  -6  -2  6.52  -7.53  30.13  <
  10  3  6  -1  223.65  242.95  56.48  o
  10  3  -6  -1  212.87  212.81  54.62  o
  10  3  6  0  2939.48  2777.36  121.85  o
  10  3  -6  0  2944.84  3111.57  138.74  o
  10  3  6  1  1.48  -3.77  37.66  <
  10  3  -6  1  2.98  48.96  45.18  <
  10  3  6  2  54.62  33.89  45.20  <
  10  3  -6  2  57.87  39.54  54.61  <
  11  3  6  -2  39.89  67.79  41.41  <
  11  3  -6  -2  36.65  -15.06  33.89  <
  11  3  6  -1  602.04  540.69  71.72  o
  11  3  -6  -1  621.17  612.29  79.14  o
  11  3  6  0  2295.02  1969.73  109.21  o
  11  3  -6  0  2093.41  2184.43  124.08  o
  11  3  6  1  1618.24  1695.05  105.26  o
  11  3  -6  1  1579.85  1517.76  113.35  o
  11  3  6  2  16.31  35.78  45.19  <
  11  3  -6  2  15.69  7.53  45.19  <
  12  3  6  -2  55.57  79.09  47.06  <
  12  3  -6  -2  55.90  60.26  43.31  <
  12  3  6  -1  159.40  165.72  54.61  o
  12  3  -6  -1  140.55  175.13  54.58  o
  12  3  6  0  14242.60  13890.50  320.43  o
  12  3  -6  0  14331.70  14320.30  345.03  o
  12  3  6  1  55.42  58.37  47.07  <
  12  3  -6  1  58.29  94.15  54.59  <
  12  3  6  2  127.68  126.17  58.38  <
  12  3  -6  2  125.69  233.50  67.71  o
  13  3  6  -2  2.24  41.42  50.83  <
  13  3  -6  -2  2.23  16.95  48.95  <
  13  3  6  -1  353.20  274.98  67.90  o
  13  3  -6  -1  313.64  395.51  73.34  o
  13  3  6  0  921.83  829.08  94.44  o
  13  3  -6  0  968.08  927.10  105.62  o
  13  3  6  1  573.20  646.12  84.62  o
  13  3  -6  1  581.35  369.21  73.80  o
  13  3  6  2  61.52  -24.48  52.73  <
  13  3  -6  2  64.98  62.14  65.90  <
  14  3  6  -2  25.03  -39.54  48.95  <
  14  3  -6  -2  24.95  65.90  58.36  <
  14  3  6  -1  1630.33  1857.02  127.36  o
  14  3  -6  -1  1657.76  1681.72  124.35  o
  14  3  6  0  3657.13  3655.51  190.71  o
  14  3  -6  0  3648.95  4019.90  179.12  o
  14  3  6  1  68.13  58.37  60.26  <
  14  3  -6  1  67.78  60.26  58.37  <
  14  3  6  2  10.11  30.13  56.48  <
  14  3  -6  2  12.94  67.78  77.19  <
  15  3  6  -2  85.01  30.13  60.27  <
  15  3  -6  -2  85.97  77.20  71.56  <
  15  3  6  -1  491.44  401.20  83.00  o
  15  3  -6  -1  455.28  502.90  99.77  o
  15  3  6  0  1841.73  1836.43  147.08  o
  15  3  -6  0  1857.25  1291.55  182.24  o
  15  3  6  1  733.63  785.58  109.17  o
  15  3  -6  1  735.45  665.02  122.56  o
  15  3  6  2  19.17  22.59  69.67  <
  15  3  -6  2  25.21  -3.77  80.97  <
  16  3  6  -2  36.53  26.36  65.90  <
  16  3  -6  -2  36.45  71.55  82.84  <
  16  3  6  -1  135.20  139.35  69.67  <
  16  3  -6  -1  145.39  75.32  86.64  <
  16  3  6  0  552.57  533.07  103.63  o
  16  3  -6  0  530.79  363.54  122.59  <
  17  3  6  -2  0.99  -60.25  67.77  <
  17  3  -6  -2  1.21  -9.41  90.38  <
  0  4  6  -2  78.42  77.21  43.31  <
  0  4  -6  -2  75.81  80.97  32.01  <
  0  4  6  -1  4051.54  4132.79  156.49  o
  0  4  -6  -1  3998.27  3948.97  121.53  o
  0  4  6  0  2674.34  2473.99  140.72  o
  0  4  -6  0  2516.52  2671.82  116.14  o
  0  4  6  1  136.06  180.78  79.07  <
  0  4  -6  1  140.56  124.29  56.50  <
  0  4  6  2  117.99  18.83  58.40  <
  0  4  -6  2  99.69  22.60  52.74  <
  1  4  6  -2  10.26  0.00  24.48  <
  1  4  -6  -2  11.51  -5.65  16.95  <
  1  4  6  -1  1233.13  1123.90  64.64  o
  1  4  -6  -1  1231.28  1204.98  52.96  o
  1  4  6  0  4896.34  4327.85  154.07  o
  1  4  -6  0  4746.70  4692.46  123.59  o
  1  4  6  1  236.16  178.92  47.15  o
  1  4  -6  1  228.54  235.42  45.19  o
  1  4  6  2  359.53  308.90  64.11  o
  1  4  -6  2  358.99  359.75  54.62  o
  2  4  6  -2  6.95  -11.30  20.71  <
  2  4  -6  -2  6.57  9.41  18.83  <
  2  4  6  -1  23.73  5.65  26.36  <
  2  4  -6  -1  23.43  11.30  24.48  <
  2  4  6  0  67.40  43.31  35.79  <
  2  4  -6  0  62.58  77.20  30.12  <
  2  4  6  1  102.01  80.97  39.56  <
  2  4  -6  1  104.25  101.69  32.01  o
  2  4  6  2  3.78  -18.83  35.77  <
  2  4  -6  2  3.75  5.65  30.13  <
  3  4  6  -2  63.30  30.13  24.49  <
  3  4  -6  -2  64.81  28.25  24.50  <
  3  4  6  -1  1201.47  1301.04  69.28  o
  3  4  -6  -1  1157.47  1208.58  63.85  o
  3  4  6  0  16204.30  16831.30  281.51  o
  3  4  -6  0  16496.70  16393.80  298.57  o
  3  4  6  1  316.28  391.76  52.60  o
  3  4  -6  1  327.09  389.89  56.40  o
  3  4  6  2  384.44  367.29  60.30  o
  3  4  -6  2  389.24  333.39  60.36  o
  4  4  6  -2  10.91  3.77  22.60  <
  4  4  -6  -2  8.74  0.00  24.48  <
  4  4  6  -1  5174.47  5365.81  126.68  o
  4  4  -6  -1  5198.27  4752.27  136.91  o
  4  4  6  0  1312.39  1536.68  79.99  o
  4  4  -6  0  1505.50  1344.63  94.93  o
  4  4  6  1  19.29  30.13  35.77  <
  4  4  -6  1  19.02  39.54  41.42  <
  4  4  6  2  131.32  0.00  37.70  <
  4  4  -6  2  116.23  33.90  45.22  <
  5  4  6  -2  22.73  -1.88  22.60  <
  5  4  -6  -2  18.83  47.07  35.77  <
  5  4  6  -1  1081.99  974.61  62.67  o
  5  4  -6  -1  1020.70  1017.90  79.18  o
  5  4  6  0  14863.10  15658.40  302.88  o
  5  4  -6  0  15146.40  14483.20  342.28  o
  5  4  6  1  488.85  548.17  71.47  o
  5  4  -6  1  528.99  536.89  73.45  o
  5  4  6  2  366.89  261.81  58.53  o
  5  4  -6  2  380.03  312.67  75.42  o
  6  4  6  -2  2.92  -3.77  26.36  <
  6  4  -6  -2  3.26  -33.89  33.89  <
  6  4  6  -1  197.74  197.74  45.20  o
  6  4  -6  -1  184.07  239.17  48.90  o
  6  4  6  0  2748.37  2796.09  131.89  o
  6  4  -6  0  2756.51  3037.78  143.85  o
  6  4  6  1  80.47  60.26  43.32  <
  6  4  -6  1  81.82  101.68  50.83  <
  6  4  6  2  6.61  65.90  45.17  <
  6  4  -6  2  6.82  24.48  48.95  <
  7  4  6  -2  62.40  73.44  37.65  <
  7  4  -6  -2  58.27  20.71  41.43  <
  7  4  6  -1  1978.12  2011.16  103.60  o
  7  4  -6  -1  1960.70  1720.59  114.21  o
  7  4  6  0  9420.68  9289.25  253.94  o
  7  4  -6  0  9289.85  8786.67  268.53  o
  7  4  6  1  193.55  169.49  60.28  <
  7  4  -6  1  210.58  152.54  56.54  <
  7  4  6  2  233.18  306.97  65.83  o
  7  4  -6  2  242.34  203.39  64.07  o
  8  4  6  -2  104.33  -5.65  30.16  <
  8  4  -6  -2  105.52  15.06  43.34  <
  8  4  6  -1  1647.44  1648.25  92.40  o
  8  4  -6  -1  1639.39  1653.89  114.98  o
  8  4  6  0  1106.76  1127.10  101.72  o
  8  4  -6  0  1117.73  1102.60  107.47  o
  8  4  6  1  621.20  487.93  77.48  o
  8  4  -6  1  623.03  446.48  81.30  o
  8  4  6  2  69.57  56.49  48.96  <
  8  4  -6  2  71.15  -1.88  54.61  <
  9  4  6  -2  50.45  30.13  37.66  <
  9  4  -6  -2  52.70  22.60  41.43  <
  9  4  6  -1  553.85  608.48  71.47  o
  9  4  -6  -1  554.47  574.57  86.62  o
  9  4  6  0  3375.44  3038.45  149.21  o
  9  4  -6  0  3130.41  3098.22  158.76  o
  9  4  6  1  115.63  99.80  58.38  <
  9  4  -6  1  113.54  107.33  60.26  <
  9  4  6  2  278.23  143.13  64.14  <
  9  4  -6  2  273.55  129.95  66.02  <
  10  4  6  -2  21.26  22.60  39.54  <
  10  4  -6  -2  17.94  20.71  41.42  <
  10  4  6  -1  173.73  203.38  52.70  o
  10  4  -6  -1  215.18  141.24  52.79  <
  10  4  6  0  98.20  60.26  47.09  <
  10  4  -6  0  40.30  54.61  56.49  <
  10  4  6  1  188.24  165.72  64.04  <
  10  4  -6  1  186.99  192.08  67.79  <
  10  4  6  2  8.26  -48.96  50.83  <
  10  4  -6  2  9.09  -15.06  58.37  <
  11  4  6  -2  92.38  75.32  45.20  <
  11  4  -6  -2  101.80  33.90  47.10  <
  11  4  6  -1  2052.53  2404.78  120.83  o
  11  4  -6  -1  2012.87  2151.97  121.95  o
  11  4  6  0  3405.79  3421.10  152.84  o
  11  4  -6  0  3280.96  3526.48  183.79  o
  11  4  6  1  187.82  222.21  65.88  o
  11  4  -6  1  187.79  222.21  79.07  <
  11  4  6  2  206.18  62.14  64.09  <
  11  4  -6  2  202.24  256.11  82.82  o
  12  4  6  -2  18.34  -7.53  41.42  <
  12  4  -6  -2  20.21  -30.13  45.19  <
  12  4  6  -1  1663.11  1604.46  117.11  o
  12  4  -6  -1  1634.14  1530.90  122.90  o
  12  4  6  0  357.83  186.46  58.58  o
  12  4  -6  0  386.76  214.71  79.26  <
  12  4  6  1  89.52  -3.77  54.62  <
  12  4  -6  1  94.33  58.37  71.56  <
  12  4  6  2  41.83  -41.42  56.48  <
  12  4  -6  2  35.50  71.55  73.43  <
  13  4  6  -2  40.05  22.60  50.84  <
  13  4  -6  -2  41.71  -11.30  47.08  <
  13  4  6  -1  435.62  391.77  77.29  o
  13  4  -6  -1  421.64  357.86  77.31  o
  13  4  6  0  4690.88  4937.22  191.07  o
  13  4  -6  0  4767.94  4555.80  227.90  o
  13  4  6  1  718.82  489.81  96.44  o
  13  4  -6  1  695.50  602.83  109.41  o
  13  4  6  2  207.56  67.79  69.74  <
  13  4  -6  2  202.10  94.16  86.67  <
  14  4  6  -2  16.40  -13.18  54.60  <
  14  4  -6  -2  17.79  -32.01  50.83  <
  14  4  6  -1  187.10  239.16  71.52  o
  14  4  -6  -1  188.30  120.52  79.13  <
  14  4  6  0  2223.66  2555.43  149.43  o
  14  4  -6  0  2226.23  2302.72  182.68  o
  14  4  6  1  157.73  7.53  64.06  <
  14  4  -6  1  155.50  107.34  90.41  <
  15  4  6  -2  22.72  5.65  64.02  <
  15  4  -6  -2  19.38  84.73  80.95  <
  15  4  6  -1  950.93  928.90  120.63  o
  15  4  -6  -1  989.94  1228.52  150.25  o
  16  4  6  -2  71.38  64.02  69.67  <
  16  4  -6  -2  62.99  -48.96  94.14  <
  0  5  6  -2  71.96  79.09  45.19  <
  0  5  -6  -2  81.94  45.19  50.85  <
  0  5  6  -1  1192.33  1159.33  137.69  o
  0  5  -6  -1  1102.84  1245.94  110.80  o
  0  5  6  0  10595.10  11197.10  423.59  o
  0  5  -6  0  10874.10  11034.50  350.44  o
  0  5  6  1  366.27  188.35  84.89  <
  0  5  -6  1  343.91  242.96  77.32  o
  0  5  6  2  21.28  54.60  111.09  <
  0  5  -6  2  19.87  -3.77  60.25  <
  1  5  6  -2  98.86  56.49  37.68  <
  1  5  -6  -2  102.88  96.04  32.02  <
  1  5  6  -1  2800.21  2556.41  116.65  o
  1  5  -6  -1  2711.15  2905.45  108.14  o
  1  5  6  0  986.66  1013.90  107.35  o
  1  5  -6  0  950.45  1149.55  87.92  o
  1  5  6  1  3003.33  2640.88  167.72  o
  1  5  -6  1  3074.81  3007.27  123.15  o
  1  5  6  2  4.19  -52.72  56.48  <
  1  5  -6  2  2.76  37.66  48.95  <
  2  5  6  -2  4.95  9.41  32.01  <
  2  5  -6  -2  5.30  5.65  24.48  <
  2  5  6  -1  49.32  18.83  35.78  <
  2  5  -6  -1  49.37  33.89  33.90  <
  2  5  6  0  597.77  548.22  79.22  o
  2  5  -6  0  595.49  572.71  65.99  o
  2  5  6  1  16.67  37.66  54.60  <
  2  5  -6  1  17.69  -9.41  45.19  <
  2  5  6  2  9.74  39.54  60.25  <
  2  5  -6  2  9.41  -20.71  48.95  <
  3  5  6  -2  89.88  50.84  33.91  <
  3  5  -6  -2  89.06  86.62  37.66  <
  3  5  6  -1  3735.48  3643.15  129.20  o
  3  5  -6  -1  3627.14  4092.45  144.02  o
  3  5  6  0  1326.36  1334.66  94.22  o
  3  5  -6  0  1440.74  1474.30  111.11  o
  3  5  6  1  2566.06  2660.56  125.90  o
  3  5  -6  1  2600.28  2473.82  134.61  o
  3  5  6  2  14.31  -65.90  56.47  <
  3  5  -6  2  14.66  28.24  50.84  <
  4  5  6  -2  87.80  -1.88  35.80  <
  4  5  -6  -2  97.53  15.06  41.45  <
  4  5  6  -1  913.43  991.24  86.46  o
  4  5  -6  -1  928.42  829.19  88.83  o
  4  5  6  0  1345.26  1359.16  103.63  o
  4  5  -6  0  1272.86  1460.86  114.37  o
  4  5  6  1  61.79  -7.53  39.55  <
  4  5  -6  1  59.39  50.84  79.09  <
  4  5  6  2  84.00  54.61  54.62  <
  4  5  -6  2  78.49  9.42  64.03  <
  5  5  6  -2  69.23  69.67  39.54  <
  5  5  -6  -2  66.63  20.71  41.44  <
  5  5  6  -1  1900.29  2114.38  110.23  o
  5  5  -6  -1  1975.68  2039.07  137.45  o
  5  5  6  0  765.68  700.89  81.17  o
  5  5  -6  0  686.22  454.04  88.92  o
  5  5  6  1  2470.56  2526.23  129.89  o
  5  5  -6  1  2469.44  2573.39  169.38  o
  5  5  6  2  11.07  88.50  56.46  <
  5  5  -6  2  11.94  33.89  67.78  <
  6  5  6  -2  16.98  32.01  41.42  <
  6  5  -6  -2  19.14  54.60  45.18  <
  6  5  6  -1  256.08  171.38  52.82  o
  6  5  -6  -1  268.55  248.60  64.05  o
  6  5  6  0  114.38  62.14  52.75  <
  6  5  -6  0  104.99  43.31  52.75  <
  6  5  6  1  10.97  -30.13  47.07  <
  6  5  -6  1  8.89  -80.96  62.12  <
  6  5  6  2  15.02  1.88  52.72  <
  6  5  -6  2  14.71  73.43  71.54  <
  7  5  6  -2  66.20  7.53  43.32  <
  7  5  -6  -2  81.13  5.65  43.32  <
  7  5  6  -1  2005.35  2001.19  120.73  o
  7  5  -6  -1  2099.65  1827.81  133.09  o
  7  5  6  0  1862.94  1849.92  122.63  o
  7  5  -6  0  1771.61  1917.66  133.33  o
  7  5  6  1  2209.02  2140.75  132.33  o
  7  5  -6  1  2212.44  2029.47  145.93  o
  7  5  6  2  22.75  20.71  60.25  <
  7  5  -6  2  22.70  26.36  73.43  <
  8  5  6  -2  81.95  15.06  45.21  <
  8  5  -6  -2  89.66  16.95  47.09  <
  8  5  6  -1  661.73  557.64  83.09  o
  8  5  -6  -1  652.44  584.01  88.67  o
  8  5  6  0  298.66  450.12  82.67  o
  8  5  -6  0  338.60  427.53  82.76  o
  8  5  6  1  142.82  129.93  58.38  <
  8  5  -6  1  155.50  101.69  65.93  <
  8  5  6  2  11.87  69.67  64.01  <
  8  5  -6  2  12.33  0.00  77.20  <
  9  5  6  -2  8.86  24.48  45.19  <
  9  5  -6  -2  11.42  60.25  52.71  <
  9  5  6  -1  1868.74  1859.32  132.04  o
  9  5  -6  -1  1895.06  1738.67  128.81  o
  9  5  6  0  1113.28  1051.55  116.99  o
  9  5  -6  0  1196.89  1021.47  124.79  o
  9  5  6  1  2187.39  2361.22  150.17  o
  9  5  -6  1  2184.18  1957.62  155.44  o
  9  5  6  2  10.28  71.55  64.01  <
  9  5  -6  2  11.34  13.18  67.78  <
  10  5  6  -2  22.64  -7.53  45.19  <
  10  5  -6  -2  19.72  18.83  58.37  <
  10  5  6  -1  68.04  30.13  52.73  <
  10  5  -6  -1  49.61  75.32  58.36  <
  10  5  6  0  820.84  870.43  112.94  o
  10  5  -6  0  807.90  838.39  116.75  o
  10  5  6  1  5.74  -16.95  62.13  <
  10  5  -6  1  4.79  13.18  67.78  <
  10  5  6  2  38.27  -9.41  64.02  <
  10  5  -6  2  39.41  94.15  75.30  <
  11  5  6  -2  102.96  60.26  54.62  <
  11  5  -6  -2  99.13  -15.06  54.62  <
  11  5  6  -1  1182.88  1187.28  120.60  o
  11  5  -6  -1  1158.44  1002.58  119.10  o
  11  5  6  0  1339.43  1144.04  132.41  o
  11  5  -6  0  1341.08  1225.08  141.63  o
  11  5  6  1  2012.38  2045.88  160.16  o
  11  5  -6  1  2033.81  1393.48  150.80  o
  12  5  6  -2  8.79  -1.88  52.72  <
  12  5  -6  -2  8.65  16.95  67.78  <
  12  5  6  -1  275.38  306.97  80.95  o
  12  5  -6  -1  242.37  412.43  95.88  o
  12  5  6  0  156.22  41.43  69.71  <
  12  5  -6  0  197.91  105.46  82.90  <
  13  5  6  -2  10.01  39.54  64.01  <
  13  5  -6  -2  8.90  9.41  73.43  <
  13  5  6  -1  489.09  444.52  99.88  o
  13  5  -6  -1  467.77  495.37  111.10  o
  14  5  6  -2  2.70  5.65  60.25  <
  14  5  -6  -2  4.11  -26.36  73.43  <
  0  6  6  -2  76.25  37.66  77.21  <
  0  6  -6  -2  80.76  120.51  60.24  <
  0  6  6  -1  504.29  391.80  113.13  o
  0  6  -6  -1  457.90  435.11  94.21  o
  0  6  6  0  160.58  -18.83  120.54  <
  0  6  -6  0  239.39  233.52  88.52  <
  0  6  6  1  819.04  665.07  218.68  o
  0  6  -6  1  832.56  776.23  158.34  o
  0  6  6  2  80.68  -45.19  96.03  <
  0  6  -6  2  72.20  5.65  131.81  <
  1  6  6  -2  45.58  39.54  47.08  <
  1  6  -6  -2  46.96  -13.18  33.90  <
  1  6  6  -1  1099.47  1108.14  141.33  o
  1  6  -6  -1  1141.90  1160.94  96.06  o
  1  6  6  0  695.53  832.69  135.43  o
  1  6  -6  0  881.25  629.32  87.22  o
  1  6  6  1  91.44  79.09  77.21  <
  1  6  -6  1  90.43  84.74  67.79  <
  1  6  6  2  390.15  376.68  111.13  o
  1  6  -6  2  394.02  323.95  88.59  o
  2  6  6  -2  8.05  33.89  48.95  <
  2  6  -6  -2  7.44  -3.77  43.31  <
  2  6  6  -1  38.53  18.83  56.49  <
  2  6  -6  -1  42.62  35.78  48.96  <
  2  6  6  0  1.84  7.53  58.37  <
  2  6  -6  0  1.04  48.96  52.71  <
  2  6  6  1  12.71  -67.78  75.30  <
  2  6  -6  1  9.39  9.41  62.14  <
  2  6  6  2  2.74  18.83  99.79  <
  2  6  -6  2  2.66  -26.36  118.62  <
  3  6  6  -2  11.84  1.88  39.54  <
  3  6  -6  -2  15.36  32.01  43.30  <
  3  6  6  -1  945.24  808.38  107.70  o
  3  6  -6  -1  910.62  998.66  107.19  o
  3  6  6  0  3110.33  2782.01  169.48  o
  3  6  -6  0  2972.45  3104.42  190.04  o
  3  6  6  1  125.63  56.49  69.69  <
  3  6  -6  1  131.62  122.40  86.62  <
  3  6  6  2  511.58  593.33  161.91  o
  3  6  -6  2  505.44  538.70  177.03  o
  4  6  6  -2  16.66  52.72  41.41  <
  4  6  -6  -2  17.33  -52.72  65.89  <
  4  6  6  -1  935.92  1183.34  102.93  o
  4  6  -6  -1  957.15  996.81  135.60  o
  4  6  6  0  1240.49  1045.99  115.46  o
  4  6  -6  0  1200.86  1111.92  147.18  o
  4  6  6  1  1115.18  1258.80  141.00  o
  4  6  -6  1  1114.08  1245.60  158.02  o
  5  6  6  -2  13.81  15.06  43.31  <
  5  6  -6  -2  14.52  16.95  64.02  <
  5  6  6  -1  853.53  727.28  90.73  o
  5  6  -6  -1  755.70  774.33  122.43  o
  5  6  6  0  3838.38  3806.85  179.57  o
  5  6  -6  0  3732.39  3672.49  189.13  o
  5  6  6  1  282.07  167.61  97.99  <
  5  6  -6  1  327.25  284.38  84.79  o
  6  6  6  -2  15.36  52.72  50.83  <
  6  6  -6  -2  16.60  30.13  50.84  <
  6  6  6  -1  54.78  90.38  58.36  <
  6  6  -6  -1  48.02  45.19  73.44  <
  6  6  6  0  486.22  525.52  92.24  o
  6  6  -6  0  500.42  610.28  122.30  o
  6  6  6  1  172.31  50.84  73.48  <
  6  6  -6  1  181.16  193.96  80.97  <
  7  6  6  -2  69.88  77.20  56.49  <
  7  6  -6  -2  64.26  -28.24  54.61  <
  7  6  6  -1  1380.44  1398.57  128.12  o
  7  6  -6  -1  1342.10  1366.48  150.73  o
  7  6  6  0  2115.86  2138.50  145.12  o
  7  6  -6  0  2139.71  1759.48  176.47  o
  7  6  6  1  93.86  107.33  73.43  <
  7  6  -6  1  89.69  96.03  73.44  <
  8  6  6  -2  6.90  13.18  50.84  <
  8  6  -6  -2  7.90  -22.59  56.49  <
  8  6  6  -1  299.71  365.36  86.56  o
  8  6  -6  -1  263.90  160.08  77.28  <
  8  6  6  0  140.07  161.95  73.43  <
  8  6  -6  0  194.89  141.24  88.53  <
  9  6  6  -2  43.35  30.13  58.37  <
  9  6  -6  -2  43.52  -11.30  62.14  <
  9  6  6  -1  1151.71  1185.33  128.06  o
  9  6  -6  -1  1206.70  1093.04  132.18  o
  9  6  6  0  188.35  137.47  75.35  <
  9  6  -6  0  123.54  222.20  99.75  <
  10  6  6  -2  15.84  37.66  69.67  <
  10  6  -6  -2  14.47  -13.18  58.37  <
  10  6  6  -1  283.12  209.04  82.92  <
  10  6  -6  -1  286.18  203.39  82.93  <
  11  6  6  -2  54.85  90.38  73.43  <
  11  6  -6  -2  65.72  -5.65  67.79  <
  0  7  6  -2  120.27  96.04  135.59  <
  0  7  -6  -2  134.57  47.08  71.58  <
  0  7  6  -1  794.16  546.35  156.64  o
  0  7  -6  -1  732.47  957.02  176.79  o
  1  7  6  -2  56.09  -20.71  71.55  <
  1  7  -6  -2  58.17  71.55  62.13  <
  1  7  6  -1  2662.76  2890.17  206.70  o
  1  7  -6  -1  2657.98  2843.00  163.29  o
  2  7  6  -2  8.97  37.66  64.02  <
  2  7  -6  -2  10.54  -22.59  54.60  <
  2  7  6  -1  7.24  37.66  86.61  <
  2  7  -6  -1  7.52  24.48  114.86  <
  3  7  6  -2  134.91  86.62  67.81  <
  3  7  -6  -2  129.68  64.02  73.46  <
  3  7  6  -1  2942.54  3266.21  192.94  o
  3  7  -6  -1  2931.25  3152.97  221.83  o
  4  7  6  -2  119.85  16.95  67.81  <
  4  7  -6  -2  129.76  73.44  77.22  <
  4  7  6  -1  1045.97  1096.66  154.42  o
  4  7  -6  -1  1032.50  1091.00  133.66  o
  5  7  6  -2  58.38  107.33  75.30  <
  5  7  -6  -2  59.01  -15.06  58.38  <
  5  7  6  -1  2684.27  2224.17  248.31  o
  5  7  -6  -1  2680.87  2793.89  173.08  o
  6  7  6  -2  32.36  18.83  64.02  <
  6  7  -6  -2  33.24  15.06  64.02  <
  7  7  6  -2  48.56  26.36  65.91  <
  7  7  -6  -2  54.65  35.78  71.56  <
  1  0  7  1  317.35  295.85  26.45  o
  1  0  -7  1  323.68  286.43  24.62  o
  1  0  7  2  13.68  11.30  13.18  <
  1  0  -7  2  13.10  33.89  16.94  <
  2  0  7  0  98.16  161.97  30.05  o
  2  0  -7  0  46.11  114.87  26.30  o
  2  0  7  1  129.86  101.71  17.00  o
  2  0  -7  1  121.78  135.61  24.46  o
  2  0  7  2  37.56  45.19  20.71  <
  2  0  -7  2  39.48  5.65  16.96  <
  3  0  7  1  275.04  265.65  22.64  o
  3  0  -7  1  265.96  233.62  26.46  o
  3  0  7  2  16.25  30.13  16.94  <
  3  0  -7  2  16.59  20.71  18.83  <
  4  0  7  0  59.04  11.30  20.73  <
  4  0  -7  0  0.60  11.30  20.71  <
  4  0  7  1  129.62  99.82  18.88  o
  4  0  -7  1  126.53  105.47  20.75  o
  4  0  7  2  13.45  5.65  15.06  <
  4  0  -7  2  13.02  -9.41  15.06  <
  5  0  7  1  1127.96  1116.98  39.71  o
  5  0  -7  1  1149.10  1067.97  42.08  o
  5  0  7  2  5.69  -1.88  15.06  <
  5  0  -7  2  4.94  -1.88  16.95  <
  6  0  7  0  20.59  33.89  22.59  <
  6  0  -7  0  26.10  82.85  30.10  <
  6  0  7  1  9.55  1.88  15.06  <
  6  0  -7  1  18.73  7.53  16.95  <
  6  0  7  2  24.67  37.66  16.94  <
  6  0  -7  2  23.82  45.19  18.82  <
  7  0  7  1  687.41  667.23  37.79  o
  7  0  -7  1  661.68  682.28  39.49  o
  7  0  7  2  26.55  -9.41  16.95  <
  7  0  -7  2  27.39  -16.95  16.95  <
  8  0  7  0  26819.10  25768.50  476.33  o
  8  0  -7  0  26766.80  25628.10  468.10  o
  8  0  7  1  310.24  242.99  30.30  o
  8  0  -7  1  342.87  280.68  32.18  o
  8  0  7  2  8.32  5.65  20.71  <
  8  0  -7  2  9.17  24.48  24.47  <
  9  0  7  1  275.21  269.35  32.03  o
  9  0  -7  1  262.82  256.16  37.68  o
  9  0  7  2  39.15  -7.53  22.60  <
  9  0  -7  2  39.62  -5.65  24.48  <
  10  0  7  0  222.10  271.20  52.67  o
  10  0  -7  0  248.77  154.44  56.59  <
  10  0  7  1  280.42  303.24  41.39  o
  10  0  -7  1  276.14  163.86  41.58  o
  10  0  7  2  25.12  52.72  30.12  <
  10  0  -7  2  28.24  20.71  28.25  <
  11  0  7  1  466.97  429.51  50.95  o
  11  0  -7  1  492.76  472.85  62.21  o
  11  0  7  2  13.27  -16.95  28.24  <
  11  0  -7  2  12.34  37.66  39.54  <
  12  0  7  0  13373.30  13156.40  444.21  o
  12  0  -7  0  13398.30  13469.60  482.02  o
  12  0  7  1  2.62  24.48  37.66  <
  12  0  -7  1  3.28  30.13  39.54  <
  12  0  7  2  59.82  71.55  37.65  <
  12  0  -7  2  53.53  -1.88  39.55  <
  13  0  7  1  498.38  544.40  73.38  o
  13  0  -7  1  519.72  510.50  86.67  o
  13  0  7  2  10.27  20.71  47.07  <
  13  0  -7  2  11.35  60.25  50.83  <
  14  0  7  0  2178.45  2101.40  164.38  o
  14  0  -7  0  2105.20  1831.54  189.37  o
  14  0  7  1  710.27  552.02  88.84  o
  14  0  -7  1  695.48  642.44  96.18  o
  14  0  7  2  6.40  35.78  52.72  <
  14  0  -7  2  4.96  28.24  54.60  <
  15  0  7  1  336.74  361.61  82.84  o
  15  0  -7  1  346.54  308.88  81.03  o
  15  0  7  2  19.72  32.01  58.37  <
  15  0  -7  2  22.72  47.07  58.37  <
  16  0  -7  0  19907.90  19809.90  711.77  o
  16  0  7  1  367.74  233.54  111.21  <
  16  0  -7  1  369.60  244.84  88.63  <
  16  0  7  2  18.16  48.96  64.01  <
  16  0  -7  2  19.78  -45.19  60.25  <
  17  0  7  1  227.17  48.96  97.98  <
  17  0  -7  1  225.34  231.63  90.39  <
  17  0  7  2  18.88  -41.42  88.49  <
  17  0  -7  2  17.37  -22.59  73.43  <
  18  0  7  0  28.03  -9.41  143.10  <
  18  0  -7  0  66.45  -7.53  107.33  <
  1  1  7  -2  3.03  16.95  16.94  <
  1  1  -7  -2  2.75  -5.65  15.06  <
  1  1  7  -1  10.19  1.88  13.18  <
  1  1  -7  -1  14.10  1.88  13.18  <
  1  1  7  0  2510.13  2696.66  75.94  o
  1  1  -7  0  2475.52  2753.26  69.16  o
  1  1  7  1  918.59  973.44  44.97  o
  1  1  -7  1  919.78  845.16  40.05  o
  1  1  7  2  12.50  -43.31  13.15  <
  1  1  -7  2  13.37  0.00  15.06  <
  2  1  7  -2  20.10  15.06  15.07  <
  2  1  -7  -2  18.33  5.65  13.18  <
  2  1  7  -1  184.83  197.79  28.23  o
  2  1  -7  -1  186.75  201.56  28.23  o
  2  1  7  0  99824.90  98142.00  1341.95  o
  2  1  -7  0  99757.70  98582.90  1142.68  o
  2  1  7  1  5737.92  5719.99  103.12  o
  2  1  -7  1  5739.47  5857.15  93.30  o
  2  1  7  2  130.06  188.33  28.16  o
  2  1  -7  2  119.93  192.10  28.13  o
  3  1  7  -2  7.66  26.36  13.17  <
  3  1  -7  -2  7.65  11.30  16.95  <
  3  1  7  -1  58.64  65.91  16.94  o
  3  1  -7  -1  59.32  65.91  20.71  o
  3  1  7  0  271.18  403.16  31.63  o
  3  1  -7  0  352.62  414.54  37.51  o
  3  1  7  1  531.04  569.21  41.33  o
  3  1  -7  1  505.34  584.26  39.28  o
  3  1  7  2  56.99  13.18  24.49  <
  3  1  -7  2  57.47  26.36  18.85  <
  4  1  7  -2  6.73  -7.53  13.18  <
  4  1  -7  -2  5.30  28.24  15.05  <
  4  1  7  -1  459.71  416.50  28.44  o
  4  1  -7  -1  465.02  427.81  30.30  o
  4  1  7  0  2817.87  2968.17  64.46  o
  4  1  -7  0  2795.58  2943.44  78.05  o
  4  1  7  1  317.29  299.55  26.43  o
  4  1  -7  1  322.74  273.18  34.02  o
  4  1  7  2  3.82  -15.06  11.29  <
  4  1  -7  2  2.75  -18.83  16.94  <
  5  1  7  -2  5.84  15.06  15.06  <
  5  1  -7  -2  5.29  11.30  15.06  <
  5  1  7  -1  70.22  65.91  16.95  o
  5  1  -7  -1  78.62  71.56  18.84  o
  5  1  7  0  112.49  203.39  24.31  o
  5  1  -7  0  184.57  133.73  22.69  o
  5  1  7  1  567.72  595.55  33.80  o
  5  1  -7  1  555.28  591.77  35.65  o
  5  1  7  2  1.38  -5.65  16.95  <
  5  1  -7  2  1.26  -15.06  15.06  <
  6  1  7  -2  13.80  7.53  15.06  <
  6  1  -7  -2  11.81  3.77  16.95  <
  6  1  7  -1  1201.48  1188.56  43.49  o
  6  1  -7  -1  1194.91  1301.74  46.39  o
  6  1  7  0  87990.50  85408.10  981.18  o
  6  1  -7  0  87844.40  85742.60  1082.22  o
  6  1  7  1  2925.52  2878.42  66.74  o
  6  1  -7  1  2907.58  2791.35  65.65  o
  6  1  7  2  33.20  60.26  30.12  <
  6  1  -7  2  32.22  64.02  20.69  o
  7  1  7  -2  18.61  7.53  16.95  <
  7  1  -7  -2  17.96  9.41  16.95  <
  7  1  7  -1  42.47  65.91  20.70  o
  7  1  -7  -1  42.73  43.31  20.71  <
  7  1  7  0  1399.20  1298.04  51.64  o
  7  1  -7  0  1264.11  1263.84  50.93  o
  7  1  7  1  248.53  222.26  33.95  o
  7  1  -7  1  245.63  254.28  39.54  o
  7  1  7  2  29.26  20.71  28.25  <
  7  1  -7  2  34.11  16.95  30.13  <
  8  1  7  -2  61.96  20.71  20.73  <
  8  1  -7  -2  63.58  3.77  18.85  <
  8  1  7  -1  162.65  111.11  24.55  o
  8  1  -7  -1  142.28  101.69  28.29  o
  8  1  7  0  13070.90  13259.60  224.99  o
  8  1  -7  0  13111.50  13076.40  232.29  o
  8  1  7  1  136.62  69.68  30.19  <
  8  1  -7  1  116.29  9.42  26.41  <
  8  1  7  2  19.66  1.88  28.25  <
  8  1  -7  2  20.11  3.77  30.13  <
  9  1  7  -2  8.60  -5.65  20.71  <
  9  1  -7  -2  9.90  24.48  24.47  <
  9  1  7  -1  19.01  30.13  26.36  <
  9  1  -7  -1  24.20  16.95  24.48  <
  9  1  7  0  2085.22  2087.71  83.04  o
  9  1  -7  0  2083.80  2100.91  84.83  o
  9  1  7  1  337.73  340.94  48.97  o
  9  1  -7  1  338.16  335.29  47.10  o
  9  1  7  2  6.97  30.13  33.89  <
  9  1  -7  2  5.95  11.30  33.89  <
  10  1  7  -2  33.80  1.88  22.60  <
  10  1  -7  -2  32.03  35.78  30.13  <
  10  1  7  -1  520.67  486.07  54.72  o
  10  1  -7  -1  522.85  484.19  58.49  o
  10  1  7  0  67927.90  65661.30  919.25  o
  10  1  -7  0  67839.00  67497.20  865.36  o
  10  1  7  1  3771.11  3801.89  120.74  o
  10  1  -7  1  3786.78  4291.62  131.98  o
  10  1  7  2  76.27  109.22  39.52  <
  10  1  -7  2  72.66  52.72  33.90  <
  11  1  7  -2  32.32  0.00  30.13  <
  11  1  -7  -2  37.84  1.88  30.13  <
  11  1  7  -1  40.14  94.15  33.86  <
  11  1  -7  -1  30.59  54.61  41.42  <
  11  1  7  0  443.67  536.87  63.85  o
  11  1  -7  0  479.15  536.89  77.13  o
  11  1  7  1  71.01  65.91  35.78  <
  11  1  -7  1  67.77  101.68  47.06  <
  11  1  7  2  58.26  7.53  35.79  <
  11  1  -7  2  56.98  -9.41  33.90  <
  12  1  7  -2  31.84  -18.83  33.89  <
  12  1  -7  -2  23.68  60.25  47.06  <
  12  1  7  -1  260.28  258.02  45.20  o
  12  1  -7  -1  280.99  216.59  58.46  o
  12  1  7  0  459.26  372.97  56.67  o
  12  1  -7  0  455.20  393.69  69.79  o
  12  1  7  1  8.64  65.90  43.29  <
  12  1  -7  1  18.56  -11.30  41.42  <
  12  1  7  2  6.45  -11.30  39.54  <
  12  1  -7  2  2.86  -64.02  39.52  <
  13  1  7  -2  24.49  30.13  41.42  <
  13  1  -7  -2  28.66  39.54  47.07  <
  13  1  7  -1  134.98  231.62  58.29  o
  13  1  -7  -1  129.20  65.91  58.40  <
  13  1  7  0  360.15  468.99  73.28  o
  13  1  -7  0  423.19  335.28  77.34  o
  13  1  7  1  60.80  92.27  48.94  <
  13  1  -7  1  73.18  -18.83  47.08  <
  13  1  7  2  2.28  18.83  41.42  <
  13  1  -7  2  3.74  -15.06  45.19  <
  14  1  7  -2  7.89  -7.53  45.19  <
  14  1  -7  -2  8.80  7.53  52.72  <
  14  1  7  -1  48.35  60.25  52.72  <
  14  1  -7  -1  39.99  112.98  62.11  <
  14  1  7  0  2901.92  3080.31  163.33  o
  14  1  -7  0  2908.30  2744.36  164.95  o
  14  1  7  1  746.84  518.11  83.33  o
  14  1  -7  1  722.91  593.46  98.19  o
  14  1  7  2  38.77  1.88  47.08  <
  14  1  -7  2  36.75  39.54  65.90  <
  15  1  7  -2  32.34  -16.95  52.72  <
  15  1  -7  -2  29.15  13.18  64.02  <
  15  1  7  -1  102.03  107.33  64.02  <
  15  1  -7  -1  101.74  65.91  65.92  <
  15  1  7  0  440.26  355.99  84.86  o
  15  1  -7  0  411.34  372.93  90.45  o
  15  1  7  1  8.14  52.72  60.25  <
  15  1  -7  1  8.62  -41.42  60.25  <
  15  1  7  2  57.98  11.30  52.73  <
  15  1  -7  2  63.77  18.83  73.44  <
  16  1  7  -2  60.82  -3.77  82.85  <
  16  1  -7  -2  59.85  24.48  65.91  <
  16  1  7  -1  518.28  431.35  92.41  o
  16  1  -7  -1  505.26  459.60  98.01  o
  16  1  7  0  4780.55  5417.73  228.60  o
  16  1  -7  0  4781.21  5155.07  237.89  o
  16  1  7  1  303.47  210.93  73.53  <
  16  1  -7  1  298.03  320.16  90.38  o
  16  1  7  2  65.31  41.43  69.67  <
  16  1  -7  2  57.07  -122.39  80.93  <
  17  1  7  -2  99.42  15.06  84.75  <
  17  1  -7  -2  94.26  5.65  69.68  <
  17  1  7  -1  151.58  135.58  105.46  <
  17  1  -7  -1  142.09  145.00  84.74  <
  17  1  7  0  653.79  510.51  124.50  o
  17  1  -7  0  620.63  587.73  116.84  o
  17  1  7  1  7.04  26.36  69.67  <
  17  1  -7  1  5.25  -43.31  86.61  <
  17  1  7  2  53.36  73.44  77.20  <
  17  1  -7  2  52.46  22.60  88.50  <
  18  1  7  -2  25.13  -48.96  96.02  <
  18  1  -7  -2  24.76  33.89  82.85  <
  1  2  7  -2  6.87  -11.30  16.94  <
  1  2  -7  -2  8.08  11.30  15.06  <
  1  2  7  -1  756.27  742.97  39.67  o
  1  2  -7  -1  737.30  763.68  39.46  o
  1  2  7  0  14911.80  14943.90  229.50  o
  1  2  -7  0  14498.60  15132.10  183.81  o
  1  2  7  1  41.24  41.43  20.71  <
  1  2  -7  1  33.52  26.36  16.95  <
  1  2  7  2  53.11  47.08  26.37  <
  1  2  -7  2  52.67  26.36  16.96  <
  2  2  7  -2  167.05  124.31  28.31  o
  2  2  -7  -2  172.18  156.34  24.51  o
  2  2  7  -1  4952.80  5200.53  95.36  o
  2  2  -7  -1  5014.34  4974.92  89.93  o
  2  2  7  0  468.18  390.08  37.92  o
  2  2  -7  0  288.10  502.98  37.01  o
  2  2  7  1  903.61  874.91  49.16  o
  2  2  -7  1  882.57  857.91  37.86  o
  2  2  7  2  8.90  -26.36  18.82  <
  2  2  -7  2  13.19  -18.83  16.94  <
  3  2  7  -2  12.64  0.00  18.83  <
  3  2  -7  -2  12.50  -16.95  15.06  <
  3  2  7  -1  544.04  588.04  48.87  o
  3  2  -7  -1  530.52  559.76  37.58  o
  3  2  7  0  10960.10  10781.00  194.41  o
  3  2  -7  0  11004.60  10823.90  175.58  o
  3  2  7  1  99.33  145.00  33.85  o
  3  2  -7  1  111.21  107.34  20.72  o
  3  2  7  2  114.74  82.86  26.39  o
  3  2  -7  2  114.71  92.28  26.39  o
  4  2  7  -2  6.10  -1.88  15.06  <
  4  2  -7  -2  5.43  1.88  16.95  <
  4  2  7  -1  32.85  39.54  16.94  <
  4  2  -7  -1  31.63  37.66  20.71  <
  4  2  7  0  697.74  782.26  37.25  o
  4  2  -7  0  676.35  833.12  44.51  o
  4  2  7  1  34.06  24.48  18.83  <
  4  2  -7  1  29.96  65.90  26.34  <
  4  2  7  2  20.46  -1.88  28.25  <
  4  2  -7  2  19.84  41.42  26.35  <
  5  2  7  -2  18.38  15.06  15.06  <
  5  2  -7  -2  21.74  -7.53  15.06  <
  5  2  7  -1  745.67  810.60  37.34  o
  5  2  -7  -1  809.89  735.27  38.11  o
  5  2  7  0  12414.90  12539.60  220.54  o
  5  2  -7  0  12935.00  12662.30  213.54  o
  5  2  7  1  375.46  412.56  47.01  o
  5  2  -7  1  399.02  376.78  43.38  o
  5  2  7  2  50.99  58.37  32.01  <
  5  2  -7  2  43.80  20.71  33.90  <
  6  2  7  -2  102.35  73.44  20.75  o
  6  2  -7  -2  95.72  47.08  18.88  <
  6  2  7  -1  3921.68  4063.84  93.06  o
  6  2  -7  -1  3943.92  3817.78  77.44  o
  6  2  7  0  559.49  561.53  56.52  o
  6  2  -7  0  539.68  619.93  58.19  o
  6  2  7  1  1388.24  1541.06  78.45  o
  6  2  -7  1  1410.41  1488.29  82.63  o
  6  2  7  2  51.03  11.30  26.37  <
  6  2  -7  2  56.01  47.08  35.78  <
  7  2  7  -2  69.13  39.54  20.73  <
  7  2  -7  -2  71.22  18.83  24.50  <
  7  2  7  -1  445.62  369.27  43.52  o
  7  2  -7  -1  441.54  416.36  47.16  o
  7  2  7  0  6204.16  5949.56  160.10  o
  7  2  -7  0  6206.77  6120.38  150.87  o
  7  2  7  1  591.70  640.64  65.82  o
  7  2  -7  1  615.94  672.69  71.46  o
  7  2  7  2  73.24  90.39  32.00  <
  7  2  -7  2  67.29  30.13  35.79  <
  8  2  7  -2  6.21  13.18  24.48  <
  8  2  -7  -2  4.73  -39.54  24.47  <
  8  2  7  -1  84.77  60.26  30.14  <
  8  2  -7  -1  92.18  67.79  30.15  <
  8  2  7  0  19807.70  19435.90  354.31  o
  8  2  -7  0  19773.50  19847.50  326.38  o
  8  2  7  1  29.07  -11.30  32.01  <
  8  2  -7  1  42.68  48.96  39.54  <
  8  2  7  2  6.64  -7.53  32.01  <
  8  2  -7  2  5.14  18.83  39.54  <
  9  2  7  -2  5.91  -16.95  24.48  <
  9  2  -7  -2  9.76  -13.18  26.36  <
  9  2  7  -1  1476.16  1571.10  80.62  o
  9  2  -7  -1  1579.67  1588.26  77.29  o
  9  2  7  0  5605.16  5668.30  158.54  o
  9  2  -7  0  5590.51  5870.92  169.87  o
  9  2  7  1  74.38  96.03  39.53  <
  9  2  -7  1  59.89  101.68  47.05  <
  9  2  7  2  62.98  -15.06  33.90  <
  9  2  -7  2  58.96  22.60  43.32  <
  10  2  7  -2  145.71  135.59  39.56  o
  10  2  -7  -2  153.66  146.89  41.44  o
  10  2  7  -1  801.28  976.16  76.71  o
  10  2  -7  -1  795.53  974.27  80.49  o
  10  2  7  0  1147.80  769.12  82.17  o
  10  2  -7  0  1070.33  1164.90  88.27  o
  10  2  7  1  1429.19  1485.80  99.71  o
  10  2  -7  1  1413.70  1463.15  105.41  o
  10  2  7  2  8.47  -5.65  35.78  <
  10  2  -7  2  11.68  -5.65  45.19  <
  11  2  7  -2  48.29  1.88  33.90  <
  11  2  -7  -2  45.02  32.01  43.31  <
  11  2  7  -1  446.15  408.77  62.23  o
  11  2  -7  -1  392.93  499.16  65.73  o
  11  2  7  0  4026.62  3746.24  153.10  o
  11  2  -7  0  4037.34  4109.19  152.59  o
  11  2  7  1  361.50  226.02  54.80  o
  11  2  -7  1  336.51  278.75  64.11  o
  11  2  7  2  41.80  64.02  43.30  <
  11  2  -7  2  44.51  18.83  47.08  <
  12  2  7  -2  24.76  -5.65  39.54  <
  12  2  -7  -2  21.03  -3.77  41.42  <
  12  2  7  -1  143.64  118.64  48.98  <
  12  2  -7  -1  168.83  111.11  52.77  <
  12  2  7  0  5583.70  6282.47  214.31  o
  12  2  -7  0  5673.47  5713.34  215.46  o
  12  2  7  1  15.02  47.07  47.07  <
  12  2  -7  1  6.83  52.72  52.71  <
  12  2  7  2  31.81  22.60  45.19  <
  12  2  -7  2  31.84  28.24  52.72  <
  13  2  7  -2  61.91  -13.18  43.31  <
  13  2  -7  -2  61.02  35.78  48.96  <
  13  2  7  -1  881.92  944.04  97.83  o
  13  2  -7  -1  821.21  927.04  103.39  o
  13  2  7  0  4139.57  4154.96  171.84  o
  13  2  -7  0  4136.58  4213.52  190.39  o
  13  2  7  1  176.17  120.52  56.53  <
  13  2  -7  1  188.47  184.55  67.80  <
  13  2  7  2  55.62  16.95  48.96  <
  13  2  -7  2  50.12  64.02  62.13  <
  14  2  7  -2  6.81  -41.42  48.95  <
  14  2  -7  -2  3.32  1.88  52.72  <
  14  2  7  -1  462.86  508.57  79.04  o
  14  2  -7  -1  479.05  510.46  94.14  o
  14  2  7  0  2454.96  2299.76  140.30  o
  14  2  -7  0  2434.14  2537.43  159.93  o
  14  2  7  1  1829.28  1851.65  128.13  o
  14  2  -7  1  1833.61  1827.15  145.21  o
  14  2  7  2  67.46  116.75  60.23  <
  14  2  -7  2  65.44  3.77  69.68  <
  15  2  7  -2  48.23  13.18  56.49  <
  15  2  -7  -2  43.94  -1.88  58.37  <
  15  2  7  -1  467.55  485.96  92.27  o
  15  2  -7  -1  453.32  615.92  126.00  o
  15  2  7  0  1830.68  2025.06  136.90  o
  15  2  -7  0  1815.13  1608.34  175.88  o
  15  2  7  1  554.65  776.07  103.20  o
  15  2  -7  1  581.88  659.30  139.30  o
  15  2  7  2  55.80  -5.65  60.26  <
  15  2  -7  2  60.18  16.95  73.44  <
  16  2  7  -2  4.95  -24.48  62.13  <
  16  2  -7  -2  5.07  -37.66  60.25  <
  16  2  7  -1  324.45  244.84  82.94  <
  16  2  -7  -1  288.25  30.13  82.96  <
  16  2  7  0  13472.90  14166.70  398.62  o
  16  2  -7  0  13403.50  13814.20  483.69  o
  16  2  7  1  383.90  310.76  84.83  o
  16  2  -7  1  393.48  199.64  109.36  <
  16  2  7  2  7.41  -18.83  62.13  <
  16  2  -7  2  7.40  -65.90  82.84  <
  17  2  7  -2  28.23  -52.72  67.78  <
  17  2  -7  -2  38.74  1.88  75.32  <
  17  2  7  -1  904.56  915.68  129.98  o
  17  2  -7  -1  993.13  957.19  160.22  o
  17  2  7  0  1535.17  1660.65  169.33  o
  17  2  -7  0  1662.33  1310.16  187.34  o
  1  3  7  -2  58.68  47.08  20.72  <
  1  3  -7  -2  59.47  39.54  15.08  <
  1  3  7  -1  932.65  905.07  45.40  o
  1  3  -7  -1  951.41  871.15  40.08  o
  1  3  7  0  4641.14  4765.72  127.63  o
  1  3  -7  0  4806.04  4736.47  99.45  o
  1  3  7  1  3045.23  3080.80  97.99  o
  1  3  -7  1  2949.11  3148.46  85.03  o
  1  3  7  2  36.38  18.83  35.78  <
  1  3  -7  2  33.20  9.41  26.37  <
  2  3  7  -2  39.72  -13.18  18.83  <
  2  3  -7  -2  35.44  7.53  15.07  <
  2  3  7  -1  603.29  799.06  46.29  o
  2  3  -7  -1  632.89  637.02  35.79  o
  2  3  7  0  21721.00  21103.20  358.80  o
  2  3  -7  0  21795.90  20653.60  326.52  o
  2  3  7  1  2575.26  2532.96  106.05  o
  2  3  -7  1  2561.86  2623.58  80.69  o
  2  3  7  2  199.53  178.91  45.22  o
  2  3  -7  2  188.19  274.96  41.29  o
  3  3  7  -2  32.88  47.07  22.59  <
  3  3  -7  -2  32.66  32.01  16.95  <
  3  3  7  -1  614.97  652.05  48.87  o
  3  3  -7  -1  651.96  682.24  45.11  o
  3  3  7  0  679.84  508.83  55.12  o
  3  3  -7  0  495.05  585.96  46.82  o
  3  3  7  1  2057.25  2212.20  104.85  o
  3  3  -7  1  2041.06  2104.57  73.13  o
  3  3  7  2  82.92  -7.53  37.68  <
  3  3  -7  2  84.08  60.26  28.26  <
  4  3  7  -2  3.15  5.65  16.95  <
  4  3  -7  -2  3.41  16.95  18.83  <
  4  3  7  -1  771.17  957.52  67.20  o
  4  3  -7  -1  767.70  819.92  54.46  o
  4  3  7  0  412.32  344.75  47.24  o
  4  3  -7  0  394.93  459.65  46.93  o
  4  3  7  1  280.54  291.94  50.84  o
  4  3  -7  1  285.57  323.96  47.02  o
  4  3  7  2  2.78  -3.77  35.77  <
  4  3  -7  2  2.91  -26.36  32.01  <
  5  3  7  -2  53.36  0.00  26.37  <
  5  3  -7  -2  51.65  28.25  22.61  <
  5  3  7  -1  552.81  550.20  54.65  o
  5  3  -7  -1  575.05  584.13  50.85  o
  5  3  7  0  1180.45  1191.68  77.26  o
  5  3  -7  0  1245.28  1178.58  77.59  o
  5  3  7  1  2392.31  2446.75  92.13  o
  5  3  -7  1  2405.94  2418.47  107.54  o
  5  3  7  2  43.14  26.36  32.01  <
  5  3  -7  2  41.08  43.31  39.54  <
  6  3  7  -2  55.80  7.53  28.26  <
  6  3  -7  -2  51.27  -11.30  28.25  <
  6  3  7  -1  663.76  800.88  69.33  o
  6  3  -7  -1  686.97  708.57  64.01  o
  6  3  7  0  12787.40  12838.80  236.16  o
  6  3  -7  0  12720.50  12996.40  267.75  o
  6  3  7  1  4346.07  4405.64  122.39  o
  6  3  -7  1  4327.74  4447.17  135.16  o
  6  3  7  2  195.39  273.07  56.41  o
  6  3  -7  2  206.98  331.46  58.22  o
  7  3  7  -2  81.07  56.49  32.03  <
  7  3  -7  -2  77.72  58.38  37.67  <
  7  3  7  -1  617.26  601.07  54.69  o
  7  3  -7  -1  632.06  574.70  66.09  o
  7  3  7  0  887.71  887.70  65.96  o
  7  3  -7  0  887.73  861.31  79.24  o
  7  3  7  1  1783.97  2076.83  96.50  o
  7  3  -7  1  1803.82  1984.44  114.26  o
  7  3  7  2  22.49  5.65  39.54  <
  7  3  -7  2  19.41  47.07  48.95  <
  8  3  7  -2  33.77  43.31  33.89  <
  8  3  -7  -2  34.72  15.06  35.78  <
  8  3  7  -1  271.76  233.55  41.50  o
  8  3  -7  -1  267.51  239.20  58.42  o
  8  3  7  0  4429.08  4656.77  147.55  o
  8  3  -7  0  4517.47  4865.27  181.07  o
  8  3  7  1  67.48  -9.42  33.90  <
  8  3  -7  1  54.03  -88.50  37.62  <
  8  3  7  2  14.54  13.18  43.31  <
  8  3  -7  2  15.52  3.77  45.19  <
  9  3  7  -2  9.96  -15.06  28.24  <
  9  3  -7  -2  7.08  52.72  41.41  <
  9  3  7  -1  408.74  403.11  58.40  o
  9  3  -7  -1  406.43  425.71  67.78  o
  9  3  7  0  2353.04  2440.14  110.84  o
  9  3  -7  0  2306.87  2445.69  139.01  o
  9  3  7  1  1580.18  1570.73  96.21  o
  9  3  -7  1  1583.25  1781.93  119.93  o
  9  3  7  2  34.18  56.49  47.07  <
  9  3  -7  2  32.94  50.84  54.60  <
  10  3  7  -2  4.74  -47.07  32.00  <
  10  3  -7  -2  7.31  -1.88  41.42  <
  10  3  7  -1  50.05  65.90  41.42  <
  10  3  -7  -1  38.95  54.61  47.07  <
  10  3  7  0  24350.80  24500.80  444.39  o
  10  3  -7  0  24328.50  25164.40  491.24  o
  10  3  7  1  1187.92  1259.08  97.77  o
  10  3  -7  1  1207.27  1304.34  114.69  o
  10  3  7  2  117.21  90.39  52.74  <
  10  3  -7  2  111.52  152.53  64.00  <
  11  3  7  -2  64.80  35.78  39.55  <
  11  3  -7  -2  64.73  54.61  47.08  <
  11  3  7  -1  41.63  67.79  43.30  <
  11  3  -7  -1  34.54  -11.30  47.07  <
  11  3  7  0  2875.30  2952.21  129.78  o
  11  3  -7  0  2898.95  2840.90  158.84  o
  11  3  7  1  1247.93  1330.71  105.28  o
  11  3  -7  1  1240.19  1059.28  117.32  o
  11  3  7  2  66.36  96.03  58.36  <
  11  3  -7  2  69.16  71.55  65.90  <
  12  3  7  -2  8.06  41.42  41.42  <
  12  3  -7  -2  7.10  -22.59  41.42  <
  12  3  7  -1  886.75  785.76  92.57  o
  12  3  -7  -1  883.42  729.23  96.43  o
  12  3  7  0  258.15  290.03  63.99  o
  12  3  -7  0  222.96  173.26  65.95  <
  12  3  7  1  39.58  16.95  47.08  <
  12  3  -7  1  47.34  -1.88  50.84  <
  12  3  7  2  42.96  69.67  56.48  <
  12  3  -7  2  34.21  58.37  58.37  <
  13  3  7  -2  15.20  -9.41  45.19  <
  13  3  -7  -2  18.81  11.30  54.61  <
  13  3  7  -1  22.88  -18.83  45.19  <
  13  3  -7  -1  19.56  -22.59  52.72  <
  13  3  7  0  2886.18  2891.17  152.84  o
  13  3  -7  0  3020.65  2889.59  164.83  o
  13  3  7  1  633.88  606.59  96.12  o
  13  3  -7  1  616.32  555.72  94.29  o
  13  3  7  2  2.18  18.83  54.60  <
  13  3  -7  2  1.83  0.00  60.25  <
  14  3  7  -2  15.44  43.31  48.95  <
  14  3  -7  -2  16.71  3.77  52.72  <
  14  3  7  -1  438.79  450.16  82.86  o
  14  3  -7  -1  444.44  612.15  103.35  o
  14  3  7  0  20.97  -28.24  50.84  <
  14  3  -7  0  12.72  45.19  65.90  <
  14  3  7  1  709.24  649.94  101.83  o
  14  3  -7  1  702.51  646.17  115.00  o
  14  3  7  2  75.40  124.28  73.42  <
  14  3  -7  2  75.04  235.37  88.41  <
  15  3  7  -2  9.17  -3.77  54.60  <
  15  3  -7  -2  8.75  35.78  77.20  <
  15  3  7  -1  70.59  96.03  62.13  <
  15  3  -7  -1  58.68  -64.02  67.78  <
  15  3  7  0  1104.16  1027.01  120.78  o
  15  3  -7  0  963.50  1055.16  133.59  o
  15  3  7  1  915.07  992.94  124.19  o
  15  3  -7  1  883.80  876.10  131.90  o
  15  3  7  2  48.58  58.37  75.32  <
  15  3  -7  2  46.68  50.84  82.85  <
  16  3  7  -2  11.10  -11.30  65.90  <
  16  3  -7  -2  8.79  -22.59  77.20  <
  16  3  7  -1  737.56  832.68  110.97  o
  16  3  -7  -1  741.81  708.34  145.10  o
  16  3  7  0  2191.63  2246.03  161.98  o
  16  3  -7  0  2260.71  2487.54  231.34  o
  17  3  7  -2  17.28  79.08  75.30  <
  17  3  -7  -2  18.00  -69.67  80.95  <
  1  4  7  -2  3.64  1.88  26.36  <
  1  4  -7  -2  5.23  -13.18  20.71  <
  1  4  7  -1  284.62  201.54  37.81  o
  1  4  -7  -1  294.89  226.02  37.79  o
  1  4  7  0  6131.54  5862.53  182.42  o
  1  4  -7  0  6232.98  6026.20  163.20  o
  1  4  7  1  745.05  706.61  77.35  o
  1  4  -7  1  756.75  704.73  69.86  o
  1  4  7  2  228.31  306.98  69.60  o
  1  4  -7  2  229.96  303.21  50.74  o
  2  4  7  -2  113.13  56.49  30.17  <
  2  4  -7  -2  112.85  71.56  26.40  <
  2  4  7  -1  6078.49  6033.91  159.74  o
  2  4  -7  -1  6107.03  6244.60  123.33  o
  2  4  7  0  891.46  944.23  80.88  o
  2  4  -7  0  825.59  863.13  62.05  o
  2  4  7  1  14.85  -37.66  35.77  <
  2  4  -7  1  13.51  62.14  35.76  <
  2  4  7  2  65.68  43.31  43.32  <
  2  4  -7  2  82.42  92.27  39.54  <
  3  4  7  -2  0.36  -33.89  30.12  <
  3  4  -7  -2  0.74  5.65  20.71  <
  3  4  7  -1  4.61  9.41  37.66  <
  3  4  -7  -1  5.31  9.41  24.48  <
  3  4  7  0  12084.50  12716.70  268.76  o
  3  4  -7  0  12354.40  12193.80  227.39  o
  3  4  7  1  742.69  815.88  80.83  o
  3  4  -7  1  763.99  778.21  80.99  o
  3  4  7  2  306.68  361.61  67.73  o
  3  4  -7  2  305.12  352.20  67.74  o
  4  4  7  -2  24.82  24.48  33.89  <
  4  4  -7  -2  23.81  11.30  26.36  <
  4  4  7  -1  67.36  107.33  43.29  <
  4  4  -7  -1  71.48  75.32  39.54  <
  4  4  7  0  43.26  65.90  41.42  <
  4  4  -7  0  65.71  58.37  39.55  <
  4  4  7  1  93.14  41.43  45.21  <
  4  4  -7  1  85.66  96.04  43.30  <
  4  4  7  2  9.33  7.53  43.31  <
  4  4  -7  2  8.37  41.42  45.18  <
  5  4  7  -2  1.65  -41.42  22.58  <
  5  4  -7  -2  3.24  26.36  33.89  <
  5  4  7  -1  1387.73  1648.09  83.57  o
  5  4  -7  -1  1461.07  1344.60  87.24  o
  5  4  7  0  17137.30  17058.60  341.92  o
  5  4  -7  0  16786.30  17096.80  348.22  o
  5  4  7  1  526.86  548.19  69.66  o
  5  4  -7  1  505.95  472.83  67.88  o
  5  4  7  2  221.85  214.69  58.39  o
  5  4  -7  2  213.76  252.35  77.18  o
  6  4  7  -2  68.38  88.50  33.88  <
  6  4  -7  -2  67.18  43.31  39.55  <
  6  4  7  -1  5419.44  5314.70  161.86  o
  6  4  -7  -1  5363.22  5208.37  152.89  o
  6  4  7  0  1499.65  1359.52  100.46  o
  6  4  -7  0  1345.35  1413.99  105.34  o
  6  4  7  1  130.41  41.43  45.23  <
  6  4  -7  1  129.01  88.51  48.98  <
  6  4  7  2  105.03  58.37  47.10  <
  6  4  -7  2  113.86  28.25  50.87  <
  7  4  7  -2  38.85  52.72  33.89  <
  7  4  -7  -2  37.56  9.41  39.55  <
  7  4  7  -1  284.78  323.95  60.22  o
  7  4  -7  -1  247.75  261.79  60.25  o
  7  4  7  0  7559.71  6966.10  223.19  o
  7  4  -7  0  7151.28  7257.27  236.05  o
  7  4  7  1  945.65  863.07  96.31  o
  7  4  -7  1  961.66  964.85  105.52  o
  7  4  7  2  232.16  205.27  62.17  o
  7  4  -7  2  222.17  112.99  56.57  <
  8  4  7  -2  10.29  -5.65  32.01  <
  8  4  -7  -2  10.47  -39.54  37.65  <
  8  4  7  -1  164.55  77.21  45.25  <
  8  4  -7  -1  142.99  86.62  54.64  <
  8  4  7  0  4261.12  4330.04  171.53  o
  8  4  -7  0  4220.60  4622.83  188.35  o
  8  4  7  1  21.94  45.19  48.95  <
  8  4  -7  1  33.31  32.01  52.72  <
  8  4  7  2  1.67  -9.41  52.72  <
  8  4  -7  2  2.33  28.24  56.48  <
  9  4  7  -2  2.74  -39.54  33.88  <
  9  4  -7  -2  4.98  41.42  48.95  <
  9  4  7  -1  1625.65  1804.55  101.00  o
  9  4  -7  -1  1640.88  1785.72  129.59  o
  9  4  7  0  4199.45  4913.07  182.26  o
  9  4  -7  0  4611.17  4311.78  196.50  o
  9  4  7  1  801.34  717.85  94.38  o
  9  4  -7  1  761.62  787.54  101.69  o
  9  4  7  2  232.45  177.02  64.07  <
  9  4  -7  2  229.22  199.62  73.47  <
  10  4  7  -2  14.43  16.95  39.54  <
  10  4  -7  -2  15.37  47.07  54.60  <
  10  4  7  -1  2554.18  2581.43  122.50  o
  10  4  -7  -1  2598.56  2717.40  152.30  o
  10  4  7  0  740.51  706.51  94.27  o
  10  4  -7  0  668.59  970.22  114.31  o
  10  4  7  1  120.90  67.79  56.51  <
  10  4  -7  1  112.39  135.58  69.66  <
  10  4  7  2  55.18  5.65  52.73  <
  10  4  -7  2  64.39  43.31  67.79  <
  11  4  7  -2  22.27  24.48  43.31  <
  11  4  -7  -2  19.91  52.72  54.60  <
  11  4  7  -1  497.75  521.77  77.19  o
  11  4  -7  -1  531.67  585.83  97.87  o
  11  4  7  0  3927.81  3992.79  180.94  o
  11  4  -7  0  4455.92  3692.13  195.01  o
  11  4  7  1  442.44  425.68  84.78  o
  11  4  -7  1  428.34  480.29  95.99  o
  11  4  7  2  245.50  252.35  75.32  o
  11  4  -7  2  251.36  222.22  77.24  <
  12  4  7  -2  2.17  -7.53  43.31  <
  12  4  -7  -2  1.26  5.65  52.72  <
  12  4  7  -1  148.93  241.04  63.94  o
  12  4  -7  -1  167.37  273.05  77.12  o
  12  4  7  0  942.91  994.88  116.71  o
  12  4  -7  0  1005.25  1019.42  120.57  o
  12  4  7  1  24.09  15.06  62.14  <
  12  4  -7  1  11.33  13.18  58.37  <
  12  4  7  2  18.42  26.36  64.02  <
  12  4  -7  2  20.40  88.50  75.30  <
  13  4  7  -2  12.00  28.24  50.84  <
  13  4  -7  -2  12.37  50.84  62.13  <
  13  4  7  -1  1558.18  1498.67  120.85  o
  13  4  -7  -1  1576.61  1692.86  146.69  o
  13  4  7  0  5994.14  5666.16  231.04  o
  13  4  -7  0  5775.73  6119.07  241.67  o
  13  4  7  1  276.39  393.60  90.27  o
  13  4  -7  1  313.95  167.62  77.33  <
  14  4  7  -2  57.57  86.62  65.89  <
  14  4  -7  -2  62.55  26.36  65.91  <
  14  4  7  -1  859.99  962.76  120.37  o
  14  4  -7  -1  853.36  1023.05  133.44  o
  14  4  7  0  174.95  33.90  69.72  <
  14  4  -7  0  194.74  154.42  77.23  <
  15  4  7  -2  44.80  -47.07  56.48  <
  15  4  -7  -2  38.94  60.25  77.20  <
  15  4  7  -1  719.40  785.57  116.68  o
  15  4  -7  -1  679.72  646.15  128.15  o
  1  5  7  -2  63.56  3.77  37.67  <
  1  5  -7  -2  65.03  28.25  32.02  <
  1  5  7  -1  3460.53  3925.59  157.64  o
  1  5  -7  -1  3581.19  3457.48  121.87  o
  1  5  7  0  3125.52  2868.07  150.52  o
  1  5  -7  0  3077.23  3504.22  129.24  o
  1  5  7  1  2560.66  2358.65  155.57  o
  1  5  -7  1  2467.56  2601.86  114.29  o
  1  5  7  2  80.84  88.50  75.32  <
  1  5  -7  2  84.52  131.81  54.58  <
  2  5  7  -2  17.83  -43.31  35.76  <
  2  5  -7  -2  18.02  54.60  33.88  <
  2  5  7  -1  1640.79  1676.49  105.46  o
  2  5  -7  -1  1723.68  1710.57  88.71  o
  2  5  7  0  372.86  384.24  75.32  o
  2  5  -7  0  364.90  308.89  62.23  o
  2  5  7  1  280.52  284.38  77.21  o
  2  5  -7  1  293.26  263.67  62.19  o
  2  5  7  2  28.42  62.14  60.25  <
  2  5  -7  2  26.77  -20.71  48.95  <
  3  5  7  -2  70.55  77.20  41.42  <
  3  5  -7  -2  68.53  111.10  33.86  o
  3  5  7  -1  4398.65  4422.17  147.28  o
  3  5  -7  -1  4442.09  4462.05  162.45  o
  3  5  7  0  221.42  231.64  62.14  o
  3  5  -7  0  140.74  195.84  58.33  o
  3  5  7  1  2011.56  2023.68  137.63  o
  3  5  -7  1  1980.85  1850.12  126.88  o
  3  5  7  2  105.04  65.91  62.15  <
  3  5  -7  2  106.37  182.65  63.97  <
  4  5  7  -2  3.82  -15.06  35.77  <
  4  5  -7  -2  3.62  -32.01  32.00  <
  4  5  7  -1  192.66  242.93  65.87  o
  4  5  -7  -1  194.56  239.17  60.22  o
  4  5  7  0  374.79  359.75  73.48  o
  4  5  -7  0  355.55  352.21  71.58  o
  4  5  7  1  61.28  11.30  50.85  <
  4  5  -7  1  71.14  7.53  58.38  <
  4  5  7  2  5.16  0.00  60.25  <
  4  5  -7  2  5.83  45.19  71.55  <
  5  5  7  -2  98.26  22.60  33.92  <
  5  5  -7  -2  96.23  22.60  39.57  <
  5  5  7  -1  3121.33  3247.61  133.25  o
  5  5  -7  -1  3127.07  3038.04  134.60  o
  5  5  7  0  356.31  421.89  71.47  o
  5  5  -7  0  519.28  325.88  85.00  o
  5  5  7  1  2347.50  2439.14  142.96  o
  5  5  -7  1  2387.38  2358.10  162.35  o
  5  5  7  2  105.50  118.63  65.90  <
  5  5  -7  2  100.84  28.25  60.27  <
  6  5  7  -2  62.75  5.65  39.55  <
  6  5  -7  -2  68.64  -26.36  39.55  <
  6  5  7  -1  1084.47  1411.61  112.07  o
  6  5  -7  -1  1138.27  1023.42  102.10  o
  6  5  7  0  146.10  80.97  52.76  <
  6  5  -7  0  160.44  82.86  60.30  <
  6  5  7  1  172.83  180.78  64.02  <
  6  5  -7  1  178.90  116.75  65.94  <
  6  5  7  2  21.02  24.48  65.90  <
  6  5  -7  2  25.73  -3.77  58.37  <
  7  5  7  -2  80.42  33.89  47.09  <
  7  5  -7  -2  70.52  99.80  54.59  <
  7  5  7  -1  1975.29  1901.12  119.14  o
  7  5  -7  -1  1869.66  1829.29  132.16  o
  7  5  7  0  501.45  572.63  86.53  o
  7  5  -7  0  559.54  474.70  81.14  o
  7  5  7  1  1852.26  1970.42  129.64  o
  7  5  -7  1  1862.76  2060.94  142.57  o
  7  5  7  2  61.61  35.78  67.79  <
  7  5  -7  2  58.88  71.55  69.67  <
  8  5  7  -2  22.68  26.36  45.19  <
  8  5  -7  -2  19.22  28.24  52.72  <
  8  5  7  -1  32.49  50.84  50.83  <
  8  5  -7  -1  23.48  -20.71  50.84  <
  8  5  7  0  1397.22  1664.41  127.30  o
  8  5  -7  0  1493.38  1004.75  114.44  o
  8  5  7  1  167.62  -41.43  48.99  <
  8  5  -7  1  148.86  54.61  69.71  <
  8  5  7  2  23.83  62.14  67.78  <
  8  5  -7  2  20.53  7.53  65.90  <
  9  5  7  -2  55.55  77.20  58.37  <
  9  5  -7  -2  59.43  33.89  50.85  <
  9  5  7  -1  1964.25  2051.78  129.76  o
  9  5  -7  -1  1935.96  1861.27  147.35  o
  9  5  7  0  1999.80  1580.27  137.18  o
  9  5  -7  0  1787.44  1800.61  147.02  o
  9  5  7  1  1539.55  1685.22  142.82  o
  9  5  -7  1  1473.31  1357.15  136.03  o
  9  5  7  2  137.71  154.41  71.55  <
  9  5  -7  2  140.96  45.19  73.47  <
  10  5  7  -2  27.06  15.06  52.72  <
  10  5  -7  -2  31.79  35.78  60.25  <
  10  5  7  -1  660.24  730.93  99.71  o
  10  5  -7  -1  681.00  619.80  103.71  o
  10  5  7  0  1204.40  1013.90  115.43  o
  10  5  -7  0  1160.61  1187.25  122.43  o
  10  5  7  1  153.48  184.54  80.96  <
  10  5  -7  1  167.38  203.38  79.07  <
  11  5  7  -2  152.17  47.08  58.42  <
  11  5  -7  -2  147.40  171.36  69.66  <
  11  5  7  -1  1042.04  1279.48  131.33  o
  11  5  -7  -1  1097.18  840.46  109.88  o
  11  5  7  0  1572.32  2032.08  154.98  o
  11  5  -7  0  1630.80  1952.99  161.14  o
  11  5  7  1  1664.53  1783.32  159.89  o
  11  5  -7  1  1658.14  1313.92  144.18  o
  12  5  7  -2  50.71  13.18  60.26  <
  12  5  -7  -2  56.60  24.48  56.49  <
  12  5  7  -1  247.74  235.40  79.11  <
  12  5  -7  -1  245.62  273.07  82.84  o
  12  5  7  0  887.99  911.90  126.19  o
  12  5  -7  0  809.37  827.07  120.54  o
  13  5  7  -2  80.35  112.98  71.54  <
  13  5  -7  -2  78.85  107.33  73.43  <
  13  5  7  -1  660.02  499.20  96.32  o
  13  5  -7  -1  701.54  725.28  116.76  o
  14  5  7  -2  24.89  0.00  69.67  <
  14  5  -7  -2  26.08  -18.83  69.67  <
  1  6  7  -2  65.47  37.66  48.96  <
  1  6  -7  -2  60.63  7.53  37.67  <
  1  6  7  -1  246.70  105.46  75.41  <
  1  6  -7  -1  262.61  184.56  62.22  <
  1  6  7  0  1516.80  1504.30  147.07  o
  1  6  -7  0  1319.06  1622.81  131.00  o
  1  6  7  1  359.79  339.01  105.49  o
  1  6  -7  1  364.46  342.78  84.78  o
  1  6  7  2  323.76  210.93  105.54  <
  1  6  -7  2  328.81  346.53  103.57  o
  2  6  7  -2  26.19  -22.60  48.95  <
  2  6  -7  -2  16.46  33.89  45.19  <
  2  6  7  -1  664.14  651.83  97.98  o
  2  6  -7  -1  657.52  700.80  97.88  o
  2  6  7  0  1686.92  1666.62  145.23  o
  2  6  -7  0  1642.70  1604.35  135.86  o
  2  6  7  1  842.62  938.26  143.03  o
  2  6  -7  1  848.33  770.58  109.43  o
  2  6  7  2  79.15  35.78  92.27  <
  2  6  -7  2  84.94  11.30  82.86  <
  3  6  7  -2  46.97  47.07  50.84  <
  3  6  -7  -2  48.63  5.65  47.08  <
  3  6  7  -1  295.58  273.08  77.24  o
  3  6  -7  -1  289.83  299.45  73.44  o
  3  6  7  0  3689.71  3815.99  199.51  o
  3  6  -7  0  3916.31  4164.13  223.53  o
  3  6  7  1  363.89  265.56  86.73  o
  3  6  -7  1  357.35  386.09  105.44  o
  4  6  7  -2  19.26  -24.48  48.95  <
  4  6  -7  -2  18.43  -5.65  45.19  <
  4  6  7  -1  59.85  37.66  56.49  <
  4  6  -7  -1  59.25  56.49  71.55  <
  4  6  7  0  89.97  94.15  69.67  <
  4  6  -7  0  100.81  88.50  75.33  <
  4  6  7  1  20.78  65.90  77.19  <
  4  6  -7  1  19.34  86.61  86.60  <
  5  6  7  -2  35.16  -28.24  47.07  <
  5  6  -7  -2  35.44  -5.65  56.49  <
  5  6  7  -1  613.76  683.81  99.72  o
  5  6  -7  -1  618.79  583.98  98.01  o
  5  6  7  0  3531.35  3651.09  197.64  o
  5  6  -7  0  3686.60  3619.41  191.04  o
  5  6  7  1  424.74  406.83  124.32  o
  5  6  -7  1  431.03  474.64  103.54  o
  6  6  7  -2  9.32  13.18  48.96  <
  6  6  -7  -2  7.97  48.96  52.71  <
  6  6  7  -1  1121.23  981.83  122.80  o
  6  6  -7  -1  1088.13  964.84  119.00  o
  6  6  7  0  701.37  636.74  113.13  o
  6  6  -7  0  689.95  625.44  105.60  o
  6  6  7  1  764.34  469.10  130.33  o
  6  6  -7  1  746.00  810.07  124.23  o
  7  6  7  -2  29.36  30.13  52.72  <
  7  6  -7  -2  25.11  47.07  58.37  <
  7  6  7  -1  315.94  261.78  75.39  o
  7  6  -7  -1  282.76  263.66  84.76  o
  7  6  7  0  1066.78  829.11  122.95  o
  7  6  -7  0  922.85  962.80  126.16  o
  8  6  7  -2  1.48  -7.53  50.84  <
  8  6  -7  -2  2.48  -15.06  50.84  <
  8  6  7  -1  230.11  227.87  73.45  o
  8  6  -7  -1  212.31  171.37  77.24  <
  8  6  7  0  1411.82  1685.01  168.95  o
  8  6  -7  0  1384.01  1390.95  148.88  o
  9  6  7  -2  14.19  62.14  62.13  <
  9  6  -7  -2  10.49  -28.24  58.37  <
  9  6  7  -1  1501.65  1788.81  148.04  o
  9  6  -7  -1  1586.26  1408.14  151.27  o
  10  6  7  -2  4.40  80.96  67.77  <
  10  6  -7  -2  1.61  24.48  64.02  <
  10  6  7  -1  333.90  306.98  86.66  o
  10  6  -7  -1  333.01  297.57  94.20  o
  11  6  7  -2  14.39  -1.88  64.02  <
  11  6  -7  -2  14.60  24.48  69.67  <
  1  7  7  -2  18.94  94.15  80.95  <
  1  7  -7  -2  17.56  -30.13  56.48  <
  1  7  7  -1  3306.94  4071.10  236.43  o
  1  7  -7  -1  3306.05  3418.06  176.84  o
  2  7  7  -2  3.77  52.72  64.01  <
  2  7  -7  -2  4.71  50.84  60.25  <
  2  7  7  -1  1132.02  1179.65  167.63  o
  2  7  -7  -1  1203.29  1253.21  158.20  o
  3  7  7  -2  43.31  65.90  65.90  <
  3  7  -7  -2  38.28  39.54  71.55  <
  3  7  7  -1  3355.70  3593.66  198.95  o
  3  7  -7  -1  3392.36  3478.61  216.69  o
  4  7  7  -2  6.24  1.88  69.67  <
  4  7  -7  -2  6.65  -9.41  67.78  <
  4  7  7  -1  10.12  -24.48  73.43  <
  4  7  -7  -1  10.54  -94.15  71.53  <
  5  7  7  -2  59.56  28.24  79.09  <
  5  7  -7  -2  61.86  77.20  71.55  <
  6  7  7  -2  29.26  -79.08  64.00  <
  6  7  -7  -2  32.05  39.54  67.78  <
  7  7  7  -2  41.23  60.25  75.31  <
  7  7  -7  -2  40.36  86.62  75.31  <
  0  0  8  0  502.77  1085.78  85.10  o
  0  0  -8  0  428.06  957.44  75.83  o
  0  0  8  1  26.24  18.83  24.48  <
  0  0  -8  1  8.03  26.36  24.47  <
  0  0  8  2  0.36  -16.95  18.83  <
  0  0  -8  2  0.39  7.53  22.59  <
  1  0  8  1  192.39  209.09  24.45  o
  1  0  -8  1  189.70  169.53  22.65  o
  1  0  8  2  22.98  18.83  15.07  <
  1  0  -8  2  22.90  28.24  15.06  <
  2  0  8  0  10924.20  12518.80  227.18  o
  2  0  -8  0  10913.10  12356.70  223.20  o
  2  0  8  1  4.71  1.88  15.06  <
  2  0  -8  1  4.92  15.06  15.06  <
  2  0  8  2  23.38  -9.41  16.95  <
  2  0  -8  2  22.59  13.18  20.71  <
  3  0  8  1  172.70  186.47  22.57  o
  3  0  -8  1  168.18  167.63  26.37  o
  3  0  8  2  11.39  11.30  20.71  <
  3  0  -8  2  11.41  33.89  20.70  <
  4  0  8  0  194016.00  193158.00  2782.81  o
  4  0  -8  0  194367.00  186709.00  2877.49  o
  4  0  8  1  0.15  -7.53  13.18  <
  4  0  -8  1  5.56  5.65  16.95  <
  4  0  8  2  3.03  13.18  15.06  <
  4  0  -8  2  2.90  -3.77  18.83  <
  5  0  8  1  543.30  540.89  33.93  o
  5  0  -8  1  532.29  561.61  37.58  o
  5  0  8  2  20.74  13.18  16.95  <
  5  0  -8  2  19.90  0.00  16.95  <
  6  0  8  0  9547.24  9595.31  211.54  o
  6  0  -8  0  9605.31  9513.99  215.14  o
  6  0  8  1  645.03  618.21  37.81  o
  6  0  -8  1  655.12  635.18  41.55  o
  6  0  8  2  43.54  13.18  16.96  <
  6  0  -8  2  47.46  45.19  20.71  <
  7  0  8  1  327.66  333.43  32.01  o
  7  0  -8  1  323.51  241.12  30.34  o
  7  0  8  2  10.06  5.65  18.83  <
  7  0  -8  2  10.24  -13.18  18.83  <
  8  0  8  0  25997.50  26766.40  463.43  o
  8  0  -8  0  25658.90  25577.70  464.33  o
  8  0  8  1  915.82  995.35  48.59  o
  8  0  -8  1  925.12  970.85  50.67  o
  8  0  8  2  1.56  11.30  20.71  <
  8  0  -8  2  1.60  18.83  28.24  <
  9  0  8  1  216.59  209.05  32.03  o
  9  0  -8  1  187.69  143.13  33.95  o
  9  0  8  2  70.72  3.77  26.38  <
  9  0  -8  2  69.39  64.02  32.01  <
  10  0  8  0  2103.67  2047.66  104.10  o
  10  0  -8  0  2026.97  2194.68  140.85  o
  10  0  8  1  1.22  -1.88  26.36  <
  10  0  -8  1  3.77  -30.13  28.24  <
  10  0  8  2  78.48  -48.96  28.24  <
  10  0  -8  2  84.43  20.71  33.92  <
  11  0  8  1  266.91  218.47  41.51  o
  11  0  -8  1  277.58  273.10  50.86  o
  11  0  8  2  19.28  1.88  32.01  <
  11  0  -8  2  18.63  41.42  41.42  <
  12  0  8  0  18813.90  18373.70  515.89  o
  12  0  -8  0  18891.20  19091.80  607.76  o
  12  0  8  1  579.08  646.18  77.10  o
  12  0  -8  1  566.24  702.69  84.49  o
  12  0  8  2  81.79  -15.06  33.91  <
  12  0  -8  2  79.34  9.42  41.44  <
  13  0  8  1  512.46  457.75  73.56  o
  13  0  -8  1  528.10  489.78  82.95  o
  13  0  8  2  19.79  -3.77  43.31  <
  13  0  -8  2  15.85  32.01  50.84  <
  14  0  8  0  6739.45  6521.00  326.85  o
  14  0  -8  0  6641.14  7080.88  361.27  o
  14  0  8  1  59.21  39.54  45.20  <
  14  0  -8  1  58.44  64.02  54.60  <
  14  0  8  2  89.88  -41.43  47.08  <
  14  0  -8  2  90.36  105.45  60.25  <
  15  0  8  1  405.24  404.95  96.06  o
  15  0  -8  1  374.29  286.28  79.20  o
  15  0  8  2  66.28  7.53  54.61  <
  15  0  -8  2  64.88  -1.88  56.50  <
  16  0  8  0  13714.30  13978.30  813.00  o
  16  0  -8  0  13702.40  14649.70  585.47  o
  16  0  8  1  147.01  146.88  118.64  <
  16  0  -8  1  161.91  92.27  71.59  <
  16  0  8  2  9.64  1.88  71.55  <
  16  0  -8  2  11.34  -5.65  65.90  <
  17  0  8  1  385.84  186.46  124.41  <
  17  0  -8  1  379.15  271.21  94.26  <
  17  0  8  2  80.20  11.30  99.81  <
  17  0  -8  2  81.76  45.19  77.21  <
  0  1  8  -2  26.78  26.36  24.48  <
  0  1  -8  -2  25.40  24.48  22.60  <
  0  1  8  -1  167.64  152.57  30.16  o
  0  1  -8  -1  160.18  165.75  32.01  o
  0  1  8  0  46003.40  45321.40  729.39  o
  0  1  -8  0  46218.30  45298.70  719.51  o
  0  1  8  1  4092.06  4176.85  139.76  o
  0  1  -8  1  4116.38  4057.48  93.68  o
  0  1  8  2  38.36  15.06  32.02  <
  0  1  -8  2  27.96  28.24  20.71  <
  1  1  8  -2  5.76  3.77  15.06  <
  1  1  -8  -2  4.92  20.71  15.06  <
  1  1  8  -1  222.03  235.47  24.46  o
  1  1  -8  -1  204.21  209.09  24.48  o
  1  1  8  0  5069.27  4967.22  92.79  o
  1  1  -8  0  4832.56  5227.24  105.31  o
  1  1  8  1  326.00  348.55  37.63  o
  1  1  -8  1  326.96  327.83  32.03  o
  1  1  8  2  42.61  20.71  18.84  <
  1  1  -8  2  46.08  26.36  18.84  <
  2  1  8  -2  5.43  -26.36  15.05  <
  2  1  -8  -2  5.66  9.41  15.06  <
  2  1  8  -1  54.82  52.73  15.07  o
  2  1  -8  -1  49.78  18.83  20.73  <
  2  1  8  0  1213.07  1185.29  56.78  o
  2  1  -8  0  1241.34  1396.75  53.71  o
  2  1  8  1  150.71  141.26  28.26  o
  2  1  -8  1  141.69  148.79  28.24  o
  2  1  8  2  4.18  -3.77  20.71  <
  2  1  -8  2  4.00  7.53  16.95  <
  3  1  8  -2  4.41  18.83  13.18  <
  3  1  -8  -2  4.50  18.83  20.71  <
  3  1  8  -1  357.62  380.61  28.18  o
  3  1  -8  -1  357.76  395.68  35.69  o
  3  1  8  0  1298.81  1370.30  58.07  o
  3  1  -8  0  1452.58  1247.97  56.05  o
  3  1  8  1  711.31  654.18  47.35  o
  3  1  -8  1  743.32  697.58  43.56  o
  3  1  8  2  20.43  54.61  30.11  <
  3  1  -8  2  23.13  16.95  18.83  <
  4  1  8  -2  38.78  39.54  16.95  <
  4  1  -8  -2  35.49  37.66  16.95  <
  4  1  8  -1  425.27  401.36  30.24  o
  4  1  -8  -1  416.77  410.78  32.05  o
  4  1  8  0  17922.40  17597.40  230.09  o
  4  1  -8  0  17743.60  17830.80  262.44  o
  4  1  8  1  5481.29  5312.21  93.81  o
  4  1  -8  1  5481.10  5785.29  101.97  o
  4  1  8  2  62.91  37.66  18.85  <
  4  1  -8  2  59.05  3.77  20.73  <
  5  1  8  -2  6.82  16.95  15.06  <
  5  1  -8  -2  8.27  -15.06  15.06  <
  5  1  8  -1  433.91  480.48  33.75  o
  5  1  -8  -1  436.28  488.02  35.62  o
  5  1  8  0  61.69  129.93  22.51  o
  5  1  -8  0  138.88  65.92  20.80  o
  5  1  8  1  571.39  595.52  45.15  o
  5  1  -8  1  539.18  535.18  37.70  o
  5  1  8  2  41.97  15.06  18.84  <
  5  1  -8  2  43.60  9.42  22.60  <
  6  1  8  -2  8.60  1.88  16.95  <
  6  1  -8  -2  7.41  3.77  16.95  <
  6  1  8  -1  496.90  495.58  35.81  o
  6  1  -8  -1  489.06  538.91  39.39  o
  6  1  8  0  640.45  635.14  41.48  o
  6  1  -8  0  612.99  588.00  41.56  o
  6  1  8  1  117.11  84.74  28.28  <
  6  1  -8  1  123.34  131.82  24.47  o
  6  1  8  2  10.33  3.77  26.36  <
  6  1  -8  2  10.20  -11.30  18.83  <
  7  1  8  -2  5.62  11.30  18.83  <
  7  1  -8  -2  4.77  1.88  18.83  <
  7  1  8  -1  338.93  329.66  32.05  o
  7  1  -8  -1  336.62  361.68  35.73  o
  7  1  8  0  1472.18  1586.70  57.67  o
  7  1  -8  0  1513.98  1392.45  57.42  o
  7  1  8  1  193.04  286.27  43.17  o
  7  1  -8  1  188.51  188.34  41.43  o
  7  1  8  2  12.92  52.72  32.00  <
  7  1  -8  2  12.61  -43.31  26.35  <
  8  1  8  -2  105.44  86.62  24.50  o
  8  1  -8  -2  107.46  73.44  24.51  o
  8  1  8  -1  13.53  -1.88  20.71  <
  8  1  -8  -1  16.52  20.71  24.48  <
  8  1  8  0  8907.87  8564.09  196.40  o
  8  1  -8  0  9094.78  8720.34  183.88  o
  8  1  8  1  2068.36  2032.98  87.05  o
  8  1  -8  1  2111.07  2242.62  84.03  o
  8  1  8  2  33.60  105.45  35.73  <
  8  1  -8  2  31.51  71.55  35.76  <
  9  1  8  -2  32.63  1.88  20.72  <
  9  1  -8  -2  29.97  -16.95  24.48  <
  9  1  8  -1  307.34  252.40  39.66  o
  9  1  -8  -1  321.42  318.33  45.21  o
  9  1  8  0  2433.15  2362.13  98.65  o
  9  1  -8  0  2498.96  2390.63  93.28  o
  9  1  8  1  463.92  497.34  60.21  o
  9  1  -8  1  437.59  593.40  59.91  o
  9  1  8  2  135.41  62.14  35.83  <
  9  1  -8  2  134.23  13.18  32.07  <
  10  1  8  -2  8.95  -24.48  26.36  <
  10  1  -8  -2  11.26  -15.06  30.13  <
  10  1  8  -1  85.21  135.58  39.50  o
  10  1  -8  -1  104.40  129.93  43.29  o
  10  1  8  0  6023.88  5831.00  166.70  o
  10  1  -8  0  6033.23  6193.01  155.62  o
  10  1  8  1  411.49  495.41  63.88  o
  10  1  -8  1  399.10  499.17  63.85  o
  10  1  8  2  2.27  45.19  35.76  <
  10  1  -8  2  4.12  -24.48  39.54  <
  11  1  8  -2  9.36  -20.71  28.24  <
  11  1  -8  -2  9.48  -37.66  28.23  <
  11  1  8  -1  330.74  280.64  54.69  o
  11  1  -8  -1  293.54  376.69  65.80  o
  11  1  8  0  1689.49  1544.67  91.21  o
  11  1  -8  0  1640.56  1916.13  108.15  o
  11  1  8  1  12.42  18.83  33.89  <
  11  1  -8  1  21.91  30.13  43.31  <
  11  1  8  2  37.81  -30.13  33.89  <
  11  1  -8  2  38.58  -30.13  37.66  <
  12  1  8  -2  32.39  47.07  39.54  <
  12  1  -8  -2  26.39  69.67  48.94  <
  12  1  8  -1  1352.39  1278.22  87.02  o
  12  1  -8  -1  1362.99  1412.09  103.51  o
  12  1  8  0  4711.48  4222.83  153.18  o
  12  1  -8  0  4643.44  4746.37  178.92  o
  12  1  8  1  3743.63  3625.57  144.39  o
  12  1  -8  1  3766.47  3922.27  157.69  o
  12  1  8  2  21.63  -30.13  35.77  <
  12  1  -8  2  17.28  52.72  48.95  <
  13  1  8  -2  2.56  47.07  45.18  <
  13  1  -8  -2  4.08  37.66  48.95  <
  13  1  8  -1  108.75  94.15  50.85  <
  13  1  -8  -1  121.16  62.14  52.75  <
  13  1  8  0  790.00  663.23  86.95  o
  13  1  -8  0  687.71  847.80  99.51  o
  13  1  8  1  52.01  60.26  47.07  <
  13  1  -8  1  67.87  24.48  50.85  <
  13  1  8  2  0.19  -11.30  43.31  <
  13  1  -8  2  0.88  -22.59  45.19  <
  14  1  8  -2  48.42  54.61  48.96  <
  14  1  -8  -2  42.43  -69.67  48.94  <
  14  1  8  -1  1122.43  1025.24  107.68  o
  14  1  -8  -1  1091.86  1219.33  120.28  o
  14  1  8  0  6245.30  6833.93  239.83  o
  14  1  -8  0  6234.43  7447.04  258.17  o
  14  1  8  1  478.23  423.81  79.19  o
  14  1  -8  1  469.92  290.08  81.20  o
  14  1  8  2  113.68  -5.65  47.10  <
  14  1  -8  2  108.88  9.42  58.39  <
  15  1  8  -2  2.99  60.25  65.89  <
  15  1  -8  -2  3.55  33.89  65.90  <
  15  1  8  -1  40.67  -79.08  60.23  <
  15  1  -8  -1  45.02  -15.06  60.26  <
  15  1  8  0  819.95  746.10  107.53  o
  15  1  -8  0  844.45  1100.33  131.36  o
  15  1  8  1  170.63  165.72  69.68  <
  15  1  -8  1  179.22  235.39  99.77  <
  15  1  8  2  34.21  13.18  58.37  <
  15  1  -8  2  30.34  16.95  73.44  <
  16  1  8  -2  7.86  -18.83  80.96  <
  16  1  -8  -2  5.79  -39.54  64.01  <
  16  1  8  -1  179.48  261.76  92.22  <
  16  1  -8  -1  169.83  47.08  67.84  <
  16  1  8  0  5550.92  5505.72  240.40  o
  16  1  -8  0  5621.16  5755.59  292.37  o
  16  1  8  1  2186.38  2338.57  161.62  o
  16  1  -8  1  2153.91  2355.49  195.51  o
  16  1  8  2  2.56  -69.67  62.12  <
  16  1  -8  2  1.64  -1.88  82.85  <
  17  1  8  -2  28.06  -22.60  94.15  <
  17  1  -8  -2  25.74  73.43  77.19  <
  17  1  8  -1  37.69  -22.60  88.50  <
  17  1  -8  -1  32.74  35.78  73.43  <
  17  1  8  0  389.38  395.52  103.58  o
  17  1  -8  0  441.86  212.83  105.64  <
  17  1  8  1  143.76  7.53  77.23  <
  17  1  -8  1  116.46  90.39  99.81  <
  17  1  8  2  29.30  32.01  75.32  <
  17  1  -8  2  31.54  18.83  90.38  <
  0  2  8  -2  110.66  109.23  28.25  o
  0  2  -8  -2  113.08  116.76  26.36  o
  0  2  8  -1  1443.81  1378.14  87.12  o
  0  2  -8  -1  1423.83  1442.27  60.29  o
  0  2  8  0  19088.50  18791.80  442.53  o
  0  2  -8  0  19159.40  18685.20  341.31  o
  0  2  8  1  932.31  1029.52  78.87  o
  0  2  -8  1  961.65  972.99  58.40  o
  0  2  8  2  203.57  146.91  45.26  o
  0  2  -8  2  205.42  143.14  33.98  o
  1  2  8  -2  19.16  9.41  22.60  <
  1  2  -8  -2  20.32  28.24  18.83  <
  1  2  8  -1  47.28  84.74  24.45  o
  1  2  -8  -1  58.93  20.71  18.85  <
  1  2  8  0  2457.76  2404.80  76.07  o
  1  2  -8  0  2405.57  2319.53  70.71  o
  1  2  8  1  711.68  629.56  49.30  o
  1  2  -8  1  729.61  684.24  36.05  o
  1  2  8  2  64.66  86.62  32.00  <
  1  2  -8  2  65.17  41.43  22.61  <
  2  2  8  -2  5.81  1.88  20.71  <
  2  2  -8  -2  5.33  -16.95  15.06  <
  2  2  8  -1  34.40  33.89  22.60  <
  2  2  -8  -1  31.31  58.37  20.70  <
  2  2  8  0  12.64  -3.77  20.71  <
  2  2  -8  0  11.43  15.06  18.83  <
  2  2  8  1  59.65  96.04  28.22  o
  2  2  -8  1  60.21  71.56  24.47  <
  2  2  8  2  30.37  -5.65  24.48  <
  2  2  -8  2  29.62  3.77  20.72  <
  3  2  8  -2  55.00  26.36  24.49  <
  3  2  -8  -2  55.62  22.60  18.85  <
  3  2  8  -1  470.84  493.71  43.27  o
  3  2  -8  -1  461.99  548.35  39.27  o
  3  2  8  0  1129.17  1154.35  60.23  o
  3  2  -8  0  1117.81  1043.05  53.21  o
  3  2  8  1  591.19  650.15  52.58  o
  3  2  -8  1  577.69  603.02  47.03  o
  3  2  8  2  60.19  88.50  35.76  <
  3  2  -8  2  56.85  69.67  24.47  <
  4  2  8  -2  85.71  90.39  20.71  o
  4  2  -8  -2  82.20  101.69  24.46  o
  4  2  8  -1  817.70  886.11  43.00  o
  4  2  -8  -1  864.08  829.61  51.06  o
  4  2  8  0  52356.00  50921.10  619.03  o
  4  2  -8  0  52366.60  51260.70  727.36  o
  4  2  8  1  18.11  30.13  30.12  <
  4  2  -8  1  25.67  5.65  22.60  <
  4  2  8  2  119.22  103.57  37.68  <
  4  2  -8  2  121.32  11.30  26.42  <
  5  2  8  -2  1.62  -5.65  16.95  <
  5  2  -8  -2  1.07  32.01  18.82  <
  5  2  8  -1  84.69  67.79  22.61  <
  5  2  -8  -1  76.93  79.09  22.60  o
  5  2  8  0  2471.66  2422.18  89.16  o
  5  2  -8  0  2374.79  2535.21  91.41  o
  5  2  8  1  725.68  606.86  56.90  o
  5  2  -8  1  687.33  708.60  60.24  o
  5  2  8  2  50.48  75.32  37.65  <
  5  2  -8  2  47.68  105.45  39.51  <
  6  2  8  -2  31.36  -1.88  16.95  <
  6  2  -8  -2  32.82  -24.48  16.94  <
  6  2  8  -1  269.61  282.54  43.30  o
  6  2  -8  -1  274.35  301.38  31.96  o
  6  2  8  0  15347.20  15574.70  286.76  o
  6  2  -8  0  15339.60  15687.90  292.80  o
  6  2  8  1  137.79  71.56  33.95  <
  6  2  -8  1  138.09  90.39  37.70  <
  6  2  8  2  47.44  37.66  39.55  <
  6  2  -8  2  50.53  32.01  35.78  <
  7  2  8  -2  17.17  33.89  30.12  <
  7  2  -8  -2  15.88  56.49  28.23  <
  7  2  8  -1  539.02  476.70  54.79  o
  7  2  -8  -1  518.98  520.02  50.87  o
  7  2  8  0  2262.88  2182.63  94.90  o
  7  2  -8  0  2355.60  2224.42  100.87  o
  7  2  8  1  1123.38  1121.77  73.53  o
  7  2  -8  1  1121.76  1163.25  82.80  o
  7  2  8  2  26.16  5.65  32.01  <
  7  2  -8  2  24.17  11.30  35.78  <
  8  2  8  -2  51.79  90.38  33.87  <
  8  2  -8  -2  53.26  37.66  32.02  <
  8  2  8  -1  2850.24  3172.09  107.15  o
  8  2  -8  -1  2835.77  2932.10  97.48  o
  8  2  8  0  19239.60  18818.10  348.66  o
  8  2  -8  0  19058.90  18683.50  353.57  o
  8  2  8  1  43.52  33.89  33.90  <
  8  2  -8  1  45.96  30.13  37.66  <
  8  2  8  2  172.62  160.07  47.09  o
  8  2  -8  2  176.95  101.69  49.02  <
  9  2  8  -2  4.51  9.41  32.01  <
  9  2  -8  -2  3.32  32.01  30.12  <
  9  2  8  -1  576.09  480.44  58.63  o
  9  2  -8  -1  543.39  503.03  58.50  o
  9  2  8  0  620.09  746.11  73.16  o
  9  2  -8  0  635.89  695.26  77.11  o
  9  2  8  1  375.02  297.61  54.75  o
  9  2  -8  1  425.94  371.09  67.90  o
  9  2  8  2  88.18  84.74  47.08  <
  9  2  -8  2  84.92  60.26  47.09  <
  10  2  8  -2  53.39  35.78  32.02  <
  10  2  -8  -2  56.95  -24.48  32.01  <
  10  2  8  -1  719.36  757.48  69.61  o
  10  2  -8  -1  745.07  917.67  84.33  o
  10  2  8  0  923.49  1049.73  84.41  o
  10  2  -8  0  907.10  978.10  94.04  o
  10  2  8  1  44.37  -13.18  37.66  <
  10  2  -8  1  38.18  32.01  45.19  <
  10  2  8  2  34.03  32.01  41.43  <
  10  2  -8  2  37.93  15.06  47.08  <
  11  2  8  -2  61.09  32.01  35.79  <
  11  2  -8  -2  60.70  28.25  39.55  <
  11  2  8  -1  426.09  467.15  60.19  o
  11  2  -8  -1  453.53  406.88  62.25  o
  11  2  8  0  1703.35  1802.90  108.95  o
  11  2  -8  0  1793.15  1731.38  113.42  o
  11  2  8  1  349.14  367.28  65.90  o
  11  2  -8  1  390.11  329.62  66.01  o
  11  2  8  2  21.36  33.89  43.30  <
  11  2  -8  2  21.02  71.55  54.59  <
  12  2  8  -2  2.25  -1.88  35.77  <
  12  2  -8  -2  3.33  -20.71  41.42  <
  12  2  8  -1  23.05  39.54  43.30  <
  12  2  -8  -1  23.93  -9.41  43.31  <
  12  2  8  0  10727.80  11084.30  285.26  o
  12  2  -8  0  10790.00  11440.40  315.10  o
  12  2  8  1  774.19  619.88  81.36  o
  12  2  -8  1  774.82  774.38  97.98  o
  12  2  8  2  110.31  109.22  54.61  <
  12  2  -8  2  111.66  88.50  56.50  <
  13  2  8  -2  19.25  -11.30  39.54  <
  13  2  -8  -2  21.23  -1.88  47.07  <
  13  2  8  -1  827.79  734.84  88.77  o
  13  2  -8  -1  845.74  838.48  105.53  o
  13  2  8  0  603.27  653.69  90.33  o
  13  2  -8  0  570.75  578.32  94.18  o
  13  2  8  1  544.77  408.77  73.69  o
  13  2  -8  1  534.22  453.97  86.77  o
  13  2  8  2  71.69  88.50  62.13  <
  13  2  -8  2  71.59  80.97  69.67  <
  14  2  8  -2  54.09  -33.89  47.07  <
  14  2  -8  -2  50.50  56.49  56.49  <
  14  2  8  -1  204.62  192.09  62.16  o
  14  2  -8  -1  182.35  178.90  82.86  <
  14  2  8  0  3994.00  4008.10  194.47  o
  14  2  -8  0  3888.19  3866.11  192.76  o
  14  2  8  1  285.81  237.30  71.61  o
  14  2  -8  1  290.89  216.58  79.16  <
  14  2  8  2  108.99  -1.88  56.51  <
  14  2  -8  2  108.37  3.77  62.16  <
  15  2  8  -2  36.24  84.73  60.24  <
  15  2  -8  -2  38.97  56.49  64.02  <
  15  2  8  -1  1026.70  1059.02  122.41  o
  15  2  -8  -1  1017.73  1215.41  163.57  o
  15  2  8  0  1169.23  1211.77  122.39  o
  15  2  -8  0  1158.88  1038.38  154.76  o
  15  2  8  1  245.55  190.21  69.72  <
  15  2  -8  1  221.73  186.44  99.83  <
  15  2  8  2  61.74  26.36  58.38  <
  15  2  -8  2  59.38  -11.30  71.56  <
  16  2  8  -2  42.85  105.44  69.65  <
  16  2  -8  -2  41.14  45.19  84.73  <
  16  2  8  -1  645.68  489.78  100.07  o
  16  2  -8  -1  653.70  487.90  124.52  o
  16  2  8  0  3613.28  3734.19  203.30  o
  16  2  -8  0  3615.19  3549.18  247.56  o
  16  2  8  1  5.66  -1.88  65.90  <
  16  2  -8  1  13.69  1.88  86.61  <
  16  2  8  2  26.23  15.06  69.67  <
  16  2  -8  2  26.42  112.97  99.78  <
  17  2  8  -2  52.37  52.72  77.20  <
  17  2  -8  -2  44.04  -3.77  80.97  <
  17  2  8  -1  806.55  751.71  122.55  o
  17  2  -8  -1  740.92  1039.91  165.33  o
  0  3  8  -2  21.43  -15.06  30.13  <
  0  3  -8  -2  18.06  30.13  22.59  <
  0  3  8  -1  1543.23  1436.07  96.68  o
  0  3  -8  -1  1533.02  1666.27  72.81  o
  0  3  8  0  16056.00  15237.60  402.65  o
  0  3  -8  0  16016.10  15436.80  396.43  o
  0  3  8  1  3076.68  3095.60  141.63  o
  0  3  -8  1  3148.65  3264.08  144.85  o
  0  3  8  2  93.20  9.42  41.45  <
  0  3  -8  2  74.78  -22.60  41.43  <
  1  3  8  -2  17.48  11.30  20.71  <
  1  3  -8  -2  12.24  -9.41  15.06  <
  1  3  8  -1  795.22  836.96  56.39  o
  1  3  -8  -1  810.75  757.80  47.36  o
  1  3  8  0  8451.64  7790.09  184.86  o
  1  3  -8  0  7938.97  8085.50  157.83  o
  1  3  8  1  864.37  917.92  67.66  o
  1  3  -8  1  861.10  987.65  65.48  o
  1  3  8  2  227.27  212.82  50.87  o
  1  3  -8  2  236.44  141.25  39.66  o
  2  3  8  -2  22.84  9.41  22.60  <
  2  3  -8  -2  23.68  5.65  18.83  <
  2  3  8  -1  17.82  11.30  24.48  <
  2  3  -8  -1  24.94  -5.65  20.71  <
  2  3  8  0  111.13  79.09  32.04  <
  2  3  -8  0  96.41  137.47  31.97  o
  2  3  8  1  18.08  1.88  33.89  <
  2  3  -8  1  13.79  7.53  22.60  <
  2  3  8  2  1.36  -18.83  32.01  <
  2  3  -8  2  1.26  9.41  28.24  <
  3  3  8  -2  14.84  60.25  28.22  <
  3  3  -8  -2  11.67  9.41  20.71  <
  3  3  8  -1  1122.93  1056.03  60.66  o
  3  3  -8  -1  1105.07  1131.44  54.54  o
  3  3  8  0  8189.85  9184.00  219.74  o
  3  3  -8  0  8815.43  8435.36  172.63  o
  3  3  8  1  586.74  738.59  76.89  o
  3  3  -8  1  608.41  546.42  49.18  o
  3  3  8  2  160.86  109.23  47.12  <
  3  3  -8  2  167.84  122.41  35.83  o
  4  3  8  -2  61.11  -3.77  20.73  <
  4  3  -8  -2  60.28  -3.77  24.49  <
  4  3  8  -1  757.92  637.05  58.80  o
  4  3  -8  -1  655.80  650.15  54.67  o
  4  3  8  0  5037.05  4984.10  157.68  o
  4  3  -8  0  5100.35  5272.45  136.56  o
  4  3  8  1  2292.90  2376.65  107.11  o
  4  3  -8  1  2262.21  2240.66  90.75  o
  4  3  8  2  63.60  65.91  43.31  <
  4  3  -8  2  58.09  5.65  37.67  <
  5  3  8  -2  22.00  41.42  28.24  <
  5  3  -8  -2  28.84  -9.41  22.60  <
  5  3  8  -1  512.93  582.18  56.34  o
  5  3  -8  -1  540.45  516.26  62.23  o
  5  3  8  0  6777.85  7110.71  190.33  o
  5  3  -8  0  6711.07  6971.64  187.22  o
  5  3  8  1  705.32  619.94  73.69  o
  5  3  -8  1  682.41  763.13  73.27  o
  5  3  8  2  208.77  128.06  47.15  <
  5  3  -8  2  205.51  195.86  52.74  o
  6  3  8  -2  5.71  11.30  28.24  <
  6  3  -8  -2  4.79  -7.53  30.13  <
  6  3  8  -1  271.36  229.79  45.26  o
  6  3  -8  -1  277.95  259.92  50.88  o
  6  3  8  0  1531.06  1671.07  93.66  o
  6  3  -8  0  1554.59  1571.15  88.57  o
  6  3  8  1  313.08  314.54  62.15  o
  6  3  -8  1  316.42  327.73  56.49  o
  6  3  8  2  11.38  1.88  41.42  <
  6  3  -8  2  11.59  -28.24  33.89  <
  7  3  8  -2  31.93  20.71  30.13  <
  7  3  -8  -2  29.51  73.44  37.64  <
  7  3  8  -1  1514.55  1625.79  86.21  o
  7  3  -8  -1  1427.38  1710.50  92.99  o
  7  3  8  0  8558.89  7914.77  213.72  o
  7  3  -8  0  8021.81  8147.68  209.47  o
  7  3  8  1  484.20  612.23  84.54  o
  7  3  -8  1  485.53  604.70  78.89  o
  7  3  8  2  147.73  124.29  52.74  <
  7  3  -8  2  149.62  163.83  54.60  <
  8  3  8  -2  18.71  -5.65  32.01  <
  8  3  -8  -2  14.80  -7.53  33.89  <
  8  3  8  -1  1191.20  1217.87  79.07  o
  8  3  -8  -1  1172.21  1274.40  90.12  o
  8  3  8  0  4493.15  4896.66  169.11  o
  8  3  -8  0  4527.10  4694.45  174.72  o
  8  3  8  1  1575.64  1651.87  116.63  o
  8  3  -8  1  1592.13  1836.70  114.03  o
  8  3  8  2  50.20  13.18  48.96  <
  8  3  -8  2  40.32  58.37  47.07  <
  9  3  8  -2  42.38  33.89  35.78  <
  9  3  -8  -2  42.74  7.53  39.55  <
  9  3  8  -1  453.98  546.28  73.29  o
  9  3  -8  -1  473.13  495.43  73.43  o
  9  3  8  0  3702.05  4234.34  160.84  o
  9  3  -8  0  3943.66  4002.84  165.93  o
  9  3  8  1  982.25  1115.66  114.63  o
  9  3  -8  1  956.59  923.41  98.08  o
  9  3  8  2  164.62  160.07  64.03  <
  9  3  -8  2  154.22  80.97  54.65  <
  10  3  8  -2  57.29  24.48  39.55  <
  10  3  -8  -2  61.10  18.83  41.43  <
  10  3  8  -1  288.76  229.77  58.45  o
  10  3  -8  -1  284.30  177.04  60.37  <
  10  3  8  0  3592.37  3753.37  157.67  o
  10  3  -8  0  3540.71  3860.86  168.10  o
  10  3  8  1  199.67  184.55  64.04  <
  10  3  -8  1  205.58  171.37  60.29  <
  10  3  8  2  5.03  26.36  52.72  <
  10  3  -8  2  6.03  -11.30  48.95  <
  11  3  8  -2  31.61  -39.54  35.77  <
  11  3  -8  -2  23.95  -15.06  39.54  <
  11  3  8  -1  539.34  416.32  68.04  o
  11  3  -8  -1  561.61  655.57  90.25  o
  11  3  8  0  6623.82  7303.38  227.33  o
  11  3  -8  0  7088.41  7200.18  239.68  o
  11  3  8  1  218.26  216.57  65.91  o
  11  3  -8  1  200.22  209.04  67.79  o
  11  3  8  2  107.60  41.43  60.28  <
  11  3  -8  2  110.87  30.13  56.51  <
  12  3  8  -2  18.73  -20.71  39.54  <
  12  3  -8  -2  18.94  -39.54  45.18  <
  12  3  8  -1  476.18  457.73  79.14  o
  12  3  -8  -1  446.85  397.44  77.30  o
  12  3  8  0  1158.04  1232.57  110.98  o
  12  3  -8  0  1182.08  1181.71  122.51  o
  12  3  8  1  1985.92  2015.97  130.00  o
  12  3  -8  1  2025.03  2315.89  144.02  o
  12  3  8  2  32.67  79.08  64.01  <
  12  3  -8  2  27.22  28.24  62.14  <
  13  3  8  -2  16.02  9.41  41.42  <
  13  3  -8  -2  18.76  22.59  54.60  <
  13  3  8  -1  145.07  154.41  60.25  <
  13  3  -8  -1  154.87  114.87  71.58  <
  13  3  8  0  3909.55  3788.60  176.35  o
  13  3  -8  0  3586.68  3976.47  201.95  o
  13  3  8  1  294.36  299.45  75.33  o
  13  3  -8  1  313.82  254.25  79.16  o
  13  3  8  2  48.15  16.95  62.14  <
  13  3  -8  2  61.16  171.35  75.27  <
  14  3  8  -2  10.06  -3.77  47.07  <
  14  3  -8  -2  9.47  -22.59  56.49  <
  14  3  8  -1  346.22  265.56  73.54  o
  14  3  -8  -1  373.99  222.24  83.00  <
  14  3  8  0  2025.19  1855.58  153.31  o
  14  3  -8  0  2011.20  1976.25  167.94  o
  14  3  8  1  314.17  282.50  79.13  o
  14  3  -8  1  317.74  389.85  97.86  o
  14  3  8  2  40.56  -35.78  65.90  <
  14  3  -8  2  38.63  41.42  73.43  <
  15  3  8  -2  67.10  11.30  54.61  <
  15  3  -8  -2  66.02  79.09  84.73  <
  15  3  8  -1  1077.53  968.58  118.96  o
  15  3  -8  -1  1010.45  927.07  137.71  o
  15  3  8  0  2463.87  2335.20  157.08  o
  15  3  -8  0  2311.62  2500.91  214.44  o
  15  3  8  1  377.86  476.50  95.93  o
  15  3  -8  1  428.48  325.84  103.69  o
  16  3  8  -2  18.53  56.49  77.19  <
  16  3  -8  -2  15.01  33.89  90.38  <
  16  3  8  -1  126.37  15.06  62.17  <
  16  3  -8  -1  138.45  163.83  105.44  <
  0  4  8  -2  122.93  39.55  43.35  <
  0  4  -8  -2  119.53  1.88  39.58  <
  0  4  8  -1  2072.39  1821.30  116.23  o
  0  4  -8  -1  2001.04  1941.93  119.15  o
  0  4  8  0  1969.11  1605.66  118.40  o
  0  4  -8  0  1701.40  1993.78  130.91  o
  0  4  8  1  218.38  218.46  77.21  <
  0  4  -8  1  219.87  297.56  69.60  o
  0  4  8  2  79.10  165.71  80.93  <
  0  4  -8  2  83.52  216.55  65.81  o
  1  4  8  -2  29.07  -1.88  26.36  <
  1  4  -8  -2  34.32  60.26  28.23  <
  1  4  8  -1  725.00  719.86  62.20  o
  1  4  -8  -1  742.70  685.95  62.36  o
  1  4  8  0  3577.20  3479.43  142.39  o
  1  4  -8  0  3615.96  3555.17  123.32  o
  1  4  8  1  3116.26  2897.11  129.77  o
  1  4  -8  1  3061.24  3032.93  111.63  o
  1  4  8  2  55.24  30.13  47.08  <
  1  4  -8  2  54.56  60.26  37.66  <
  2  4  8  -2  1.06  0.00  30.13  <
  2  4  -8  -2  1.02  -1.88  20.71  <
  2  4  8  -1  24.77  32.01  37.66  <
  2  4  -8  -1  17.98  -11.30  26.36  <
  2  4  8  0  8.99  -45.19  33.88  <
  2  4  -8  0  8.83  28.24  30.12  <
  2  4  8  1  42.35  52.72  45.19  <
  2  4  -8  1  43.30  45.19  35.78  <
  2  4  8  2  38.51  -56.49  37.64  <
  2  4  -8  2  39.89  3.77  35.78  <
  3  4  8  -2  62.58  32.01  39.55  <
  3  4  -8  -2  65.44  62.14  26.36  <
  3  4  8  -1  952.81  989.55  86.59  o
  3  4  -8  -1  1010.83  936.84  60.63  o
  3  4  8  0  3034.22  2808.53  133.52  o
  3  4  -8  0  2618.04  3090.52  111.91  o
  3  4  8  1  3865.29  3749.36  140.68  o
  3  4  -8  1  3816.01  3531.87  139.93  o
  3  4  8  2  42.84  67.79  50.83  <
  3  4  -8  2  39.61  92.26  52.70  <
  4  4  8  -2  22.30  5.65  35.78  <
  4  4  -8  -2  20.51  28.24  28.24  <
  4  4  8  -1  1371.39  1295.45  92.69  o
  4  4  -8  -1  1375.03  1404.82  86.61  o
  4  4  8  0  17165.20  17597.70  348.56  o
  4  4  -8  0  17437.10  16470.30  360.84  o
  4  4  8  1  88.94  60.26  45.20  <
  4  4  -8  1  84.17  77.20  45.20  <
  4  4  8  2  108.60  24.48  50.87  <
  4  4  -8  2  108.50  101.69  50.85  <
  5  4  8  -2  38.03  15.06  39.55  <
  5  4  -8  -2  41.86  -22.60  32.01  <
  5  4  8  -1  569.94  631.14  73.34  o
  5  4  -8  -1  532.68  591.55  67.69  o
  5  4  8  0  3250.54  3397.98  150.23  o
  5  4  -8  0  3435.45  3355.13  140.31  o
  5  4  8  1  2231.41  2103.67  123.23  o
  5  4  -8  1  2287.43  2337.74  126.17  o
  5  4  8  2  33.42  -3.77  47.08  <
  5  4  -8  2  28.25  58.37  60.25  <
  6  4  8  -2  9.14  -5.65  39.54  <
  6  4  -8  -2  9.15  0.00  33.89  <
  6  4  8  -1  369.47  337.16  65.97  o
  6  4  -8  -1  390.67  365.42  60.32  o
  6  4  8  0  3826.43  4126.97  170.07  o
  6  4  -8  0  3797.54  3835.86  143.34  o
  6  4  8  1  65.87  67.79  58.37  <
  6  4  -8  1  65.66  86.62  48.95  <
  6  4  8  2  14.35  -28.24  48.95  <
  6  4  -8  2  16.34  39.54  52.72  <
  7  4  8  -2  19.06  5.65  41.43  <
  7  4  -8  -2  15.83  11.30  39.54  <
  7  4  8  -1  957.11  1064.81  109.04  o
  7  4  -8  -1  960.26  983.77  96.05  o
  7  4  8  0  2658.39  3068.93  156.51  o
  7  4  -8  0  3039.37  2786.78  144.83  o
  7  4  8  1  2363.65  2441.39  146.82  o
  7  4  -8  1  2489.05  2139.75  128.07  o
  7  4  8  2  28.54  -48.96  52.71  <
  7  4  -8  2  23.75  64.02  58.36  <
  8  4  8  -2  49.47  3.77  43.31  <
  8  4  -8  -2  46.31  60.26  48.95  <
  8  4  8  -1  2456.02  2419.30  139.82  o
  8  4  -8  -1  2379.00  2688.97  132.37  o
  8  4  8  0  309.61  297.58  71.58  o
  8  4  -8  0  255.19  195.86  60.32  o
  8  4  8  1  84.69  28.25  56.50  <
  8  4  -8  1  87.30  75.32  54.61  <
  8  4  8  2  82.18  77.20  62.14  <
  8  4  -8  2  85.38  41.43  52.74  <
  9  4  8  -2  6.52  47.07  41.42  <
  9  4  -8  -2  8.31  -7.53  39.54  <
  9  4  8  -1  522.71  508.61  84.79  o
  9  4  -8  -1  549.29  388.06  71.85  o
  9  4  8  0  866.04  759.35  103.85  o
  9  4  -8  0  746.83  845.95  99.64  o
  9  4  8  1  1890.84  1980.03  142.99  o
  9  4  -8  1  1927.29  1759.45  128.87  o
  9  4  8  2  89.87  28.25  64.04  <
  9  4  -8  2  93.91  32.01  60.27  <
  10  4  8  -2  2.59  -35.77  39.53  <
  10  4  -8  -2  2.14  20.71  47.07  <
  10  4  8  -1  171.30  286.24  75.23  o
  10  4  -8  -1  169.05  335.20  71.39  o
  10  4  8  0  678.55  746.03  105.38  o
  10  4  -8  0  684.55  649.96  98.03  o
  10  4  8  1  48.25  -13.18  56.49  <
  10  4  -8  1  45.31  -64.02  48.94  <
  10  4  8  2  11.32  -13.18  67.78  <
  10  4  -8  2  12.30  22.59  62.13  <
  11  4  8  -2  27.24  48.96  47.07  <
  11  4  -8  -2  29.11  -22.60  54.60  <
  11  4  8  -1  703.38  661.27  99.93  o
  11  4  -8  -1  665.73  951.37  110.56  o
  11  4  8  0  3477.97  3539.99  188.49  o
  11  4  -8  0  3308.32  3620.70  179.60  o
  11  4  8  1  1355.44  1194.97  137.98  o
  11  4  -8  1  1338.18  1694.43  144.09  o
  11  4  8  2  68.73  -20.71  67.79  <
  11  4  -8  2  75.39  65.90  67.79  <
  12  4  8  -2  21.24  73.43  50.82  <
  12  4  -8  -2  23.88  16.95  54.61  <
  12  4  8  -1  36.71  43.31  60.25  <
  12  4  -8  -1  59.04  65.90  64.02  <
  12  4  8  0  394.63  197.76  77.40  <
  12  4  -8  0  403.72  254.27  77.38  o
  12  4  8  1  359.87  393.63  99.79  o
  12  4  -8  1  349.48  278.74  79.17  o
  12  4  8  2  92.33  60.26  80.98  <
  12  4  -8  2  91.74  60.26  67.80  <
  13  4  8  -2  11.06  -7.53  56.49  <
  13  4  -8  -2  12.21  33.89  62.13  <
  13  4  8  -1  609.08  600.92  101.74  o
  13  4  -8  -1  549.13  299.50  85.06  o
  13  4  8  0  2313.35  2331.20  171.57  o
  13  4  -8  0  2351.61  2378.42  160.22  o
  13  4  8  1  1406.02  1138.41  141.98  o
  13  4  -8  1  1384.46  1353.26  143.32  o
  14  4  8  -2  0.12  9.41  62.13  <
  14  4  -8  -2  0.01  -9.41  67.78  <
  14  4  8  -1  463.70  355.99  90.53  o
  14  4  -8  -1  455.56  355.98  99.93  o
  14  4  8  0  1175.70  1117.49  143.34  o
  14  4  -8  0  1151.02  1290.84  152.34  o
  15  4  8  -2  8.32  -11.30  58.37  <
  15  4  -8  -2  10.52  -96.03  67.76  <
  15  4  8  -1  1295.40  1356.93  152.51  o
  15  4  -8  -1  1331.46  1432.35  163.74  o
  0  5  8  -2  2.00  18.83  58.37  <
  0  5  -8  -2  3.06  -33.89  39.54  <
  0  5  8  -1  1367.97  1195.28  147.45  o
  0  5  -8  -1  1394.63  1389.50  124.45  o
  0  5  8  0  2693.52  2689.44  207.62  o
  0  5  -8  0  2773.77  2589.59  165.00  o
  0  5  8  1  207.37  171.37  88.53  <
  0  5  -8  1  196.64  94.16  67.85  <
  0  5  8  2  50.96  22.60  82.85  <
  0  5  -8  2  40.65  165.70  73.38  <
  1  5  8  -2  10.18  39.54  39.54  <
  1  5  -8  -2  8.16  -18.83  30.12  <
  1  5  8  -1  993.56  859.39  102.09  o
  1  5  -8  -1  986.78  1061.04  84.57  o
  1  5  8  0  6840.47  6767.70  237.32  o
  1  5  -8  0  6603.98  7010.60  189.26  o
  1  5  8  1  495.65  659.28  95.79  o
  1  5  -8  1  495.68  597.12  75.14  o
  1  5  8  2  371.13  350.32  99.84  o
  1  5  -8  2  364.88  340.90  73.48  o
  2  5  8  -2  9.05  3.77  39.54  <
  2  5  -8  -2  9.75  -5.65  32.01  <
  2  5  8  -1  17.44  30.13  43.31  <
  2  5  -8  -1  20.92  37.66  37.65  <
  2  5  8  0  538.13  548.18  88.52  o
  2  5  -8  0  557.99  529.35  79.17  o
  2  5  8  1  101.22  158.18  69.64  <
  2  5  -8  1  99.73  65.91  50.86  <
  2  5  8  2  2.32  20.71  58.37  <
  2  5  -8  2  2.21  -30.13  48.95  <
  3  5  8  -2  1.17  -5.65  37.66  <
  3  5  -8  -2  0.53  26.36  35.77  <
  3  5  8  -1  2210.99  2330.06  116.35  o
  3  5  -8  -1  2261.91  2133.94  113.86  o
  3  5  8  0  3466.99  3807.17  167.98  o
  3  5  -8  0  3940.77  3738.81  169.36  o
  3  5  8  1  311.94  259.90  77.27  o
  3  5  -8  1  308.85  342.77  73.41  o
  3  5  8  2  299.72  359.71  86.57  o
  3  5  -8  2  304.40  235.42  71.63  o
  4  5  8  -2  28.14  32.01  45.19  <
  4  5  -8  -2  25.21  -16.95  39.54  <
  4  5  8  -1  937.38  697.25  91.00  o
  4  5  -8  -1  768.51  904.41  93.88  o
  4  5  8  0  442.51  442.64  79.11  o
  4  5  -8  0  415.31  544.34  86.44  o
  4  5  8  1  58.70  1.88  48.96  <
  4  5  -8  1  60.29  39.54  64.03  <
  4  5  8  2  44.98  45.19  62.14  <
  4  5  -8  2  37.61  111.09  71.53  <
  5  5  8  -2  75.04  0.00  43.32  <
  5  5  -8  -2  82.30  47.08  43.32  <
  5  5  8  -1  1194.89  1198.77  113.08  o
  5  5  -8  -1  1200.07  998.98  102.34  o
  5  5  8  0  2265.22  2518.37  144.12  o
  5  5  -8  0  2060.43  2295.38  165.14  o
  5  5  8  1  615.26  616.00  90.42  o
  5  5  -8  1  589.26  659.32  112.92  o
  5  5  8  2  264.58  314.51  80.93  o
  5  5  -8  2  264.44  355.94  99.73  o
  6  5  8  -2  15.91  -37.66  43.30  <
  6  5  -8  -2  13.25  45.19  47.07  <
  6  5  8  -1  115.80  156.29  62.12  <
  6  5  -8  -1  104.55  35.78  50.86  <
  6  5  8  0  23.75  -43.31  48.95  <
  6  5  -8  0  7.89  16.95  56.49  <
  6  5  8  1  67.01  18.83  58.38  <
  6  5  -8  1  65.67  131.81  63.99  <
  6  5  8  2  20.49  3.77  62.14  <
  6  5  -8  2  21.08  13.18  65.90  <
  7  5  8  -2  43.58  -7.53  47.08  <
  7  5  -8  -2  37.96  -13.18  41.43  <
  7  5  8  -1  1293.58  1360.91  129.87  o
  7  5  -8  -1  1261.19  1283.59  113.02  o
  7  5  8  0  4881.21  4447.57  210.46  o
  7  5  -8  0  4356.08  4594.99  202.64  o
  7  5  8  1  481.42  450.17  99.87  o
  7  5  -8  1  505.03  529.29  96.03  o
  7  5  8  2  307.32  190.21  82.95  <
  7  5  -8  2  313.20  214.70  79.18  <
  8  5  8  -2  19.50  5.65  48.96  <
  8  5  -8  -2  14.77  -1.88  47.07  <
  8  5  8  -1  1623.31  1536.56  134.13  o
  8  5  -8  -1  1674.89  1478.18  128.84  o
  8  5  8  0  918.48  972.26  122.36  o
  8  5  -8  0  936.49  778.20  107.73  o
  8  5  8  1  96.08  84.74  71.56  <
  8  5  -8  1  93.53  92.27  69.67  <
  8  5  8  2  62.44  -28.24  65.90  <
  8  5  -8  2  52.57  3.77  69.67  <
  9  5  8  -2  29.88  -13.18  54.61  <
  9  5  -8  -2  23.96  -16.95  48.96  <
  9  5  8  -1  739.62  974.02  123.89  o
  9  5  -8  -1  741.37  693.30  99.94  o
  9  5  8  0  2364.04  2897.28  177.02  o
  9  5  -8  0  2626.81  2128.11  145.50  o
  9  5  8  1  748.18  595.32  115.15  o
  9  5  -8  1  749.18  747.92  118.69  o
  9  5  8  2  287.02  237.29  96.08  <
  9  5  -8  2  281.91  111.11  82.96  <
  10  5  8  -2  43.38  107.33  62.11  <
  10  5  -8  -2  44.91  24.48  58.37  <
  10  5  8  -1  100.44  137.46  69.65  <
  10  5  -8  -1  127.71  56.49  67.81  <
  10  5  8  0  335.90  322.05  92.30  o
  10  5  -8  0  315.59  323.93  84.74  o
  10  5  8  1  215.23  214.68  90.39  <
  10  5  -8  1  223.20  288.13  92.23  o
  11  5  8  -2  63.53  99.80  67.77  <
  11  5  -8  -2  58.64  5.65  56.49  <
  11  5  8  -1  1497.93  1700.25  159.67  o
  11  5  -8  -1  1531.39  1428.85  134.14  o
  11  5  8  0  4330.00  4721.97  230.25  o
  11  5  -8  0  4688.85  4231.98  208.51  o
  12  5  8  -2  21.71  -33.89  62.13  <
  12  5  -8  -2  21.98  -39.54  54.60  <
  12  5  8  -1  314.48  254.25  90.45  <
  12  5  -8  -1  230.16  237.28  79.09  o
  13  5  8  -2  68.55  58.37  69.67  <
  13  5  -8  -2  73.58  54.61  73.44  <
  13  5  8  -1  396.76  346.55  190.25  <
  13  5  -8  -1  400.78  220.36  115.01  <
  0  6  8  -2  112.38  -64.02  62.14  <
  0  6  -8  -2  97.88  -9.42  48.97  <
  0  6  8  -1  1148.42  823.58  153.18  o
  0  6  -8  -1  1013.84  1138.18  139.18  o
  0  6  8  0  2912.68  2532.43  344.23  o
  0  6  -8  0  2826.89  2837.95  190.54  o
  0  6  8  1  164.51  -28.25  135.60  <
  0  6  -8  1  157.78  33.90  88.53  <
  1  6  8  -2  46.89  77.20  56.48  <
  1  6  -8  -2  48.19  56.49  41.42  <
  1  6  8  -1  2289.36  2071.18  162.99  o
  1  6  -8  -1  2292.29  2254.16  132.22  o
  1  6  8  0  1037.35  1417.05  166.93  o
  1  6  -8  0  1136.56  1025.18  105.83  o
  1  6  8  1  1522.43  1283.67  172.04  o
  1  6  -8  1  1511.70  1596.57  135.46  o
  2  6  8  -2  3.75  28.24  64.02  <
  2  6  -8  -2  3.13  15.06  47.07  <
  2  6  8  -1  47.07  26.36  58.37  <
  2  6  -8  -1  42.26  79.08  50.83  <
  2  6  8  0  360.39  463.32  95.93  o
  2  6  -8  0  372.27  374.80  88.52  o
  2  6  8  1  33.20  64.02  75.31  <
  2  6  -8  1  34.25  48.96  71.55  <
  3  6  8  -2  63.22  0.00  52.73  <
  3  6  -8  -2  68.14  32.01  48.97  <
  3  6  8  -1  2002.87  2191.36  152.05  o
  3  6  -8  -1  2099.09  1948.23  130.75  o
  3  6  8  0  1178.93  1292.81  142.96  o
  3  6  -8  0  1127.06  1087.35  147.07  o
  3  6  8  1  1518.01  1532.47  160.18  o
  3  6  -8  1  1501.12  1524.91  169.59  o
  4  6  8  -2  37.49  0.00  50.84  <
  4  6  -8  -2  40.06  16.95  50.84  <
  4  6  8  -1  863.06  725.40  111.42  o
  4  6  -8  -1  837.29  862.92  128.07  o
  4  6  8  0  50.21  97.91  75.30  <
  4  6  -8  0  130.26  48.96  79.11  <
  4  6  8  1  447.48  337.15  94.29  o
  4  6  -8  1  428.89  389.88  111.16  o
  5  6  8  -2  102.42  120.51  62.13  <
  5  6  -8  -2  106.83  41.43  60.28  <
  5  6  8  -1  2024.62  2330.86  151.55  o
  5  6  -8  -1  2007.08  1987.62  171.67  o
  5  6  8  0  1014.92  964.76  132.00  o
  5  6  -8  0  954.85  633.10  111.74  o
  5  6  8  1  1383.59  1179.85  173.79  o
  5  6  -8  1  1416.09  1213.81  141.85  o
  6  6  8  -2  14.48  9.41  56.49  <
  6  6  -8  -2  12.87  16.95  56.49  <
  6  6  8  -1  59.10  0.00  58.38  <
  6  6  -8  -1  72.87  64.02  64.02  <
  6  6  8  0  1524.80  1502.33  154.63  o
  6  6  -8  0  1514.40  1802.03  155.61  o
  7  6  8  -2  38.71  -32.01  58.37  <
  7  6  -8  -2  31.10  39.54  60.25  <
  7  6  8  -1  1634.97  1851.24  157.71  o
  7  6  -8  -1  1632.30  1806.00  157.84  o
  7  6  8  0  844.30  736.66  124.52  o
  7  6  -8  0  833.43  902.45  129.87  o
  8  6  8  -2  31.80  58.37  67.78  <
  8  6  -8  -2  29.15  1.88  56.49  <
  8  6  8  -1  823.36  955.20  129.75  o
  8  6  -8  -1  696.67  928.74  123.91  o
  8  6  8  0  868.00  1087.10  142.77  o
  8  6  -8  0  891.97  806.39  128.27  o
  9  6  8  -2  34.60  73.43  73.43  <
  9  6  -8  -2  42.86  50.84  67.78  <
  9  6  8  -1  1223.76  1145.81  145.28  o
  9  6  -8  -1  1187.68  1100.55  139.64  o
  10  6  8  -2  36.10  22.60  73.44  <
  10  6  -8  -2  38.67  15.06  65.91  <
  11  6  8  -2  46.09  -18.83  75.32  <
  11  6  -8  -2  53.90  -62.14  58.36  <
  0  7  8  -2  40.93  -43.31  143.10  <
  0  7  -8  -2  34.45  16.95  96.03  <
  0  7  8  -1  316.37  572.53  244.70  <
  0  7  -8  -1  291.04  384.19  129.88  <
  1  7  8  -2  29.97  -41.42  75.31  <
  1  7  -8  -2  32.53  35.78  64.02  <
  1  7  8  -1  962.49  1196.46  172.94  o
  1  7  -8  -1  986.74  1132.42  150.46  o
  2  7  8  -2  4.75  1.88  62.14  <
  2  7  -8  -2  5.31  -18.83  56.49  <
  2  7  8  -1  67.39  -9.41  88.50  <
  2  7  -8  -1  61.27  60.26  86.62  <
  3  7  8  -2  32.13  -37.66  60.25  <
  3  7  -8  -2  28.17  73.43  73.42  <
  3  7  8  -1  1452.11  1930.07  170.20  o
  3  7  -8  -1  1466.99  1472.07  162.09  o
  4  7  8  -2  48.70  60.25  73.43  <
  4  7  -8  -2  50.74  -18.83  77.20  <
  5  7  8  -2  90.68  13.18  73.45  <
  5  7  -8  -2  86.44  -3.77  67.80  <
  6  7  8  -2  32.58  47.07  84.73  <
  6  7  -8  -2  27.82  16.95  65.90  <
  1  0  9  1  14.01  54.61  18.81  <
  1  0  -9  1  20.24  15.06  16.95  <
  1  0  9  2  13.00  16.95  16.95  <
  1  0  -9  2  12.28  0.00  15.06  <
  2  0  9  0  117848.00  105991.00  2117.64  o
  2  0  -9  0  117533.00  107447.00  1759.01  o
  2  0  9  1  2287.61  2225.77  59.25  o
  2  0  -9  1  2253.23  2314.50  56.06  o
  2  0  9  2  39.72  -5.65  20.72  <
  2  0  -9  2  42.31  39.54  22.60  <
  3  0  9  1  109.78  122.41  20.70  o
  3  0  -9  1  109.51  88.51  24.50  o
  3  0  9  2  24.07  -15.06  16.95  <
  3  0  -9  2  21.53  -9.41  18.83  <
  4  0  9  0  36370.40  37937.50  587.94  o
  4  0  -9  0  36416.60  36798.30  611.93  o
  4  0  9  1  466.30  459.79  32.06  o
  4  0  -9  1  460.01  493.70  35.68  o
  4  0  9  2  31.02  16.95  16.95  <
  4  0  -9  2  33.19  -20.71  18.83  <
  5  0  9  1  197.35  188.35  24.50  o
  5  0  -9  1  195.67  188.35  26.38  o
  5  0  9  2  7.28  -3.77  16.95  <
  5  0  -9  2  8.14  20.71  18.83  <
  6  0  9  0  29087.60  29530.90  503.52  o
  6  0  -9  0  28987.40  29752.40  502.39  o
  6  0  9  1  815.95  801.17  41.55  o
  6  0  -9  1  803.15  787.96  45.31  o
  6  0  9  2  76.71  50.84  20.73  <
  6  0  -9  2  79.81  30.13  22.62  <
  7  0  9  1  22.85  18.83  20.71  <
  7  0  -9  1  22.98  -15.06  20.71  <
  7  0  9  2  17.91  -1.88  22.60  <
  7  0  -9  2  17.78  1.88  20.71  <
  8  0  9  0  23880.60  24237.00  442.68  o
  8  0  -9  0  23843.00  23638.80  444.90  o
  8  0  9  1  28.39  7.53  20.72  <
  8  0  -9  1  54.30  -18.83  22.60  <
  8  0  9  2  5.80  1.88  24.48  <
  8  0  -9  2  4.67  0.00  26.36  <
  9  0  9  1  20.63  54.60  28.23  <
  9  0  -9  1  31.75  30.13  32.01  <
  9  0  9  2  9.76  0.00  30.13  <
  9  0  -9  2  10.26  28.24  30.12  <
  10  0  9  0  45236.10  44599.60  773.45  o
  10  0  -9  0  45226.50  44364.40  969.51  o
  10  0  9  1  225.57  111.12  39.67  <
  10  0  -9  1  205.89  193.98  45.21  o
  10  0  9  2  56.29  -1.88  32.02  <
  10  0  -9  2  59.22  52.72  37.66  <
  11  0  9  1  42.80  33.89  39.54  <
  11  0  -9  1  32.11  32.01  37.66  <
  11  0  9  2  88.89  50.84  33.91  <
  11  0  -9  2  85.09  18.83  41.44  <
  12  0  9  0  15974.80  14523.80  513.89  o
  12  0  -9  0  16000.30  15261.60  538.75  o
  12  0  9  1  391.45  414.38  67.77  o
  12  0  -9  1  388.77  386.13  69.70  o
  12  0  9  2  160.87  65.91  41.49  <
  12  0  -9  2  169.11  43.31  45.26  <
  13  0  9  1  103.13  133.70  56.47  <
  13  0  -9  1  96.05  22.60  52.74  <
  13  0  9  2  26.06  -1.88  43.31  <
  13  0  -9  2  25.44  20.71  52.72  <
  14  0  9  0  13055.90  12629.70  484.45  o
  14  0  -9  0  12713.60  12774.60  513.24  o
  14  0  9  1  540.54  578.30  88.47  o
  14  0  -9  1  547.65  762.91  107.00  o
  14  0  9  2  6.44  -15.06  60.25  <
  14  0  -9  2  6.66  -67.78  50.82  <
  15  0  9  1  164.26  58.38  67.83  <
  15  0  -9  1  171.54  69.68  69.72  <
  15  0  9  2  15.57  -54.60  64.01  <
  15  0  -9  2  15.14  47.07  64.01  <
  16  0  9  0  1251.96  1411.60  303.24  o
  16  0  -9  0  1252.26  1583.10  319.98  o
  16  0  9  1  462.73  502.90  124.27  o
  16  0  -9  1  467.59  604.62  110.94  o
  16  0  9  2  46.69  -9.41  65.91  <
  16  0  -9  2  51.34  -26.36  69.67  <
  17  0  9  1  209.80  114.87  114.91  <
  17  0  -9  1  199.42  26.36  81.02  <
  17  0  9  2  79.74  9.41  111.10  <
  17  0  -9  2  86.89  -37.66  80.97  <
  1  1  9  -2  8.78  -7.53  16.95  <
  1  1  -9  -2  9.04  -11.30  16.94  <
  1  1  9  -1  757.14  769.34  39.54  o
  1  1  -9  -1  781.95  699.60  34.41  o
  1  1  9  0  2869.06  3024.73  68.25  o
  1  1  -9  0  3067.83  2969.03  86.13  o
  1  1  9  1  104.67  163.84  30.06  o
  1  1  -9  1  103.75  60.26  20.76  <
  1  1  9  2  42.04  32.01  24.48  <
  1  1  -9  2  42.10  13.18  18.84  <
  2  1  9  -2  125.94  137.48  24.47  o
  2  1  -9  -2  128.97  113.00  20.74  o
  2  1  9  -1  462.59  488.09  30.04  o
  2  1  -9  -1  456.00  386.32  37.89  o
  2  1  9  0  1043.80  1052.61  54.66  o
  2  1  -9  0  1013.35  1069.53  50.62  o
  2  1  9  1  1574.14  1514.08  64.57  o
  2  1  -9  1  1600.37  1648.19  61.97  o
  2  1  9  2  13.84  -15.06  22.59  <
  2  1  -9  2  14.95  15.06  20.71  <
  3  1  9  -2  23.65  5.65  13.19  <
  3  1  -9  -2  24.95  52.72  24.47  <
  3  1  9  -1  789.19  748.55  47.31  o
  3  1  -9  -1  805.05  839.08  45.09  o
  3  1  9  0  3846.28  3779.11  103.01  o
  3  1  -9  0  3694.12  3886.14  96.52  o
  3  1  9  1  436.85  422.06  43.38  o
  3  1  -9  1  454.11  410.77  39.69  o
  3  1  9  2  77.63  37.66  28.27  <
  3  1  -9  2  77.01  28.25  24.50  <
  4  1  9  -2  0.71  3.77  15.06  <
  4  1  -9  -2  0.52  5.65  18.83  <
  4  1  9  -1  37.05  48.96  18.82  <
  4  1  -9  -1  43.59  -13.18  20.72  <
  4  1  9  0  20870.00  20856.80  309.67  o
  4  1  -9  0  20864.80  20819.70  341.31  o
  4  1  9  1  13.57  24.48  18.83  <
  4  1  -9  1  17.86  22.60  22.59  <
  4  1  9  2  1.41  -3.77  18.83  <
  4  1  -9  2  1.23  28.24  28.24  <
  5  1  9  -2  27.12  -5.65  15.07  <
  5  1  -9  -2  26.44  -5.65  16.95  <
  5  1  9  -1  1497.02  1343.73  48.37  o
  5  1  -9  -1  1471.79  1522.96  52.45  o
  5  1  9  0  1841.94  1699.29  68.94  o
  5  1  -9  0  1761.96  1748.17  60.52  o
  5  1  9  1  147.03  190.21  30.07  o
  5  1  -9  1  160.51  131.83  26.41  o
  5  1  9  2  41.93  -24.48  20.71  <
  5  1  -9  2  41.19  13.18  28.25  <
  6  1  9  -2  127.33  50.85  20.79  <
  6  1  -9  -2  129.16  65.91  22.66  <
  6  1  9  -1  33.96  43.31  18.82  <
  6  1  -9  -1  28.71  67.79  22.57  <
  6  1  9  0  38.23  28.24  24.48  <
  6  1  -9  0  14.98  65.90  24.45  <
  6  1  9  1  877.45  810.60  54.94  o
  6  1  -9  1  881.69  846.42  47.30  o
  6  1  9  2  35.11  7.53  30.13  <
  6  1  -9  2  37.22  -9.41  30.13  <
  7  1  9  -2  14.56  15.06  18.83  <
  7  1  -9  -2  11.93  3.77  20.71  <
  7  1  9  -1  553.04  625.58  43.07  o
  7  1  -9  -1  544.69  661.37  46.69  o
  7  1  9  0  2116.64  2344.95  81.39  o
  7  1  -9  0  2224.76  2099.80  70.88  o
  7  1  9  1  214.41  150.67  41.51  o
  7  1  -9  1  208.48  212.82  43.31  o
  7  1  9  2  44.13  67.79  33.88  <
  7  1  -9  2  43.56  24.48  35.78  <
  8  1  9  -2  23.62  5.65  20.72  <
  8  1  -9  -2  24.22  -11.30  20.71  <
  8  1  9  -1  108.64  62.14  28.28  <
  8  1  -9  -1  99.02  109.22  32.00  o
  8  1  9  0  585.97  612.37  62.11  o
  8  1  -9  0  701.02  714.21  62.15  o
  8  1  9  1  35.97  20.71  32.01  <
  8  1  -9  1  45.33  60.26  32.00  <
  8  1  9  2  7.89  -13.18  28.24  <
  8  1  -9  2  9.85  -18.83  33.89  <
  9  1  9  -2  18.03  1.88  22.60  <
  9  1  -9  -2  18.59  9.41  30.13  <
  9  1  9  -1  946.28  893.44  68.05  o
  9  1  -9  -1  976.57  853.89  64.54  o
  9  1  9  0  2717.27  2547.68  105.00  o
  9  1  -9  0  2574.05  2749.33  98.81  o
  9  1  9  1  320.35  303.25  50.88  o
  9  1  -9  1  340.45  325.86  50.88  o
  9  1  9  2  5.72  -30.13  28.24  <
  9  1  -9  2  6.13  26.36  37.66  <
  10  1  9  -2  17.34  22.60  32.01  <
  10  1  -9  -2  17.69  13.18  33.89  <
  10  1  9  -1  210.57  218.46  45.19  o
  10  1  -9  -1  215.71  222.23  50.84  o
  10  1  9  0  2694.81  2839.74  114.24  o
  10  1  -9  0  2679.81  2767.95  105.12  o
  10  1  9  1  1009.64  1076.22  77.03  o
  10  1  -9  1  1005.84  1017.79  82.89  o
  10  1  9  2  22.79  16.95  35.78  <
  10  1  -9  2  19.49  30.13  39.54  <
  11  1  9  -2  28.86  50.84  39.54  <
  11  1  -9  -2  32.67  48.96  39.54  <
  11  1  9  -1  554.68  548.22  64.07  o
  11  1  -9  -1  618.15  508.69  64.30  o
  11  1  9  0  795.88  738.66  75.53  o
  11  1  -9  0  871.20  838.59  90.54  o
  11  1  9  1  112.60  69.67  41.45  <
  11  1  -9  1  115.12  1.88  45.22  <
  11  1  9  2  67.22  -9.42  33.90  <
  11  1  -9  2  68.82  5.65  37.67  <
  12  1  9  -2  0.67  -50.84  37.65  <
  12  1  -9  -2  1.50  16.95  45.19  <
  12  1  9  -1  519.45  597.16  78.97  o
  12  1  -9  -1  504.75  499.20  77.24  o
  12  1  9  0  18788.00  17931.90  367.64  o
  12  1  -9  0  18824.30  18677.40  409.66  o
  12  1  9  1  745.89  753.65  86.65  o
  12  1  -9  1  734.66  723.50  92.35  o
  12  1  9  2  17.30  41.42  41.42  <
  12  1  -9  2  13.61  -32.01  47.07  <
  13  1  9  -2  29.34  -3.77  48.96  <
  13  1  -9  -2  29.78  -18.83  48.96  <
  13  1  9  -1  572.39  401.25  70.00  o
  13  1  -9  -1  550.92  438.92  83.06  o
  13  1  9  0  920.03  959.14  105.43  o
  13  1  -9  0  1004.76  1091.12  110.96  o
  13  1  9  1  189.77  192.09  60.26  o
  13  1  -9  1  186.24  308.84  75.21  o
  13  1  9  2  9.81  -3.77  43.31  <
  13  1  -9  2  12.21  13.18  54.60  <
  14  1  9  -2  59.49  47.07  52.73  <
  14  1  -9  -2  60.30  43.31  58.38  <
  14  1  9  -1  24.35  54.60  64.01  <
  14  1  -9  -1  24.54  -26.36  52.72  <
  14  1  9  0  1397.04  1364.74  126.39  o
  14  1  -9  0  1415.02  1296.90  132.27  o
  14  1  9  1  1255.53  1257.14  122.51  o
  14  1  -9  1  1292.66  1340.11  150.68  o
  14  1  9  2  9.28  -16.95  48.95  <
  14  1  -9  2  10.69  30.13  60.25  <
  15  1  9  -2  27.01  82.85  62.12  <
  15  1  -9  -2  25.39  3.77  64.02  <
  15  1  9  -1  343.96  182.69  81.11  <
  15  1  -9  -1  333.83  297.57  84.79  o
  15  1  9  0  804.21  651.88  122.70  o
  15  1  -9  0  769.16  793.16  133.73  o
  15  1  9  1  480.03  476.55  92.30  o
  15  1  -9  1  449.16  469.00  112.99  o
  15  1  9  2  33.78  28.24  60.25  <
  15  1  -9  2  30.50  1.88  75.32  <
  16  1  9  -2  14.37  45.19  96.03  <
  16  1  -9  -2  11.95  5.65  69.67  <
  16  1  9  -1  15.03  -45.19  77.19  <
  16  1  -9  -1  31.14  -48.96  62.13  <
  16  1  9  0  8231.34  8268.80  335.05  o
  16  1  -9  0  8418.55  8557.91  366.69  o
  16  1  9  1  3.01  -43.31  69.66  <
  16  1  -9  1  18.36  30.13  82.85  <
  16  1  9  2  10.71  32.01  71.55  <
  16  1  -9  2  10.17  -39.54  80.96  <
  17  1  9  -2  35.65  -3.77  94.15  <
  17  1  -9  -2  32.63  41.42  80.96  <
  17  1  9  -1  442.08  367.28  146.96  <
  17  1  -9  -1  462.06  578.24  131.72  o
  17  1  9  0  859.15  795.07  135.75  o
  17  1  -9  0  780.41  832.70  152.52  o
  17  1  9  1  176.96  101.69  88.54  <
  17  1  -9  1  211.45  320.14  116.69  <
  1  2  9  -2  47.77  47.08  24.48  <
  1  2  -9  -2  47.38  43.31  18.83  <
  1  2  9  -1  223.84  239.21  35.76  o
  1  2  -9  -1  237.54  259.94  31.97  o
  1  2  9  0  1552.67  1375.90  70.80  o
  1  2  -9  0  1394.10  1496.33  57.81  o
  1  2  9  1  1102.04  1005.15  60.79  o
  1  2  -9  1  1073.93  1159.74  54.21  o
  1  2  9  2  12.47  -1.88  24.48  <
  1  2  -9  2  9.87  -9.41  24.48  <
  2  2  9  -2  25.78  -5.65  20.71  <
  2  2  -9  -2  27.55  11.30  16.95  <
  2  2  9  -1  111.95  145.01  33.86  o
  2  2  -9  -1  128.76  116.76  26.38  o
  2  2  9  0  53563.60  51438.30  718.03  o
  2  2  -9  0  53386.00  51879.20  682.60  o
  2  2  9  1  2732.70  2744.35  96.30  o
  2  2  -9  1  2743.34  2544.04  79.26  o
  2  2  9  2  323.06  244.88  43.45  o
  2  2  -9  2  336.38  201.56  34.17  o
  3  2  9  -2  79.66  37.66  24.50  <
  3  2  -9  -2  77.80  50.84  22.62  <
  3  2  9  -1  359.56  297.66  37.82  o
  3  2  -9  -1  338.93  374.89  41.36  o
  3  2  9  0  1023.63  1078.61  67.66  o
  3  2  -9  0  1080.87  1057.96  54.81  o
  3  2  9  1  897.93  891.68  67.89  o
  3  2  -9  1  891.77  791.77  51.33  o
  3  2  9  2  47.81  41.43  39.54  <
  3  2  -9  2  40.83  7.53  22.60  <
  4  2  9  -2  53.88  16.95  20.73  <
  4  2  -9  -2  54.36  54.61  24.48  <
  4  2  9  -1  316.76  267.49  32.14  o
  4  2  -9  -1  301.70  325.89  43.28  o
  4  2  9  0  6744.06  7271.45  127.33  o
  4  2  -9  0  6785.83  6901.24  162.16  o
  4  2  9  1  33.01  -9.41  30.13  <
  4  2  -9  1  26.07  30.13  26.36  <
  4  2  9  2  21.18  -1.88  32.01  <
  4  2  -9  2  23.03  -30.13  24.47  <
  5  2  9  -2  46.85  20.71  20.72  <
  5  2  -9  -2  48.08  77.20  22.57  o
  5  2  9  -1  444.62  418.26  39.64  o
  5  2  -9  -1  444.24  523.77  52.55  o
  5  2  9  0  1476.05  1516.79  75.25  o
  5  2  -9  0  1499.41  1464.01  75.65  o
  5  2  9  1  784.35  814.20  65.87  o
  5  2  -9  1  775.29  689.80  58.71  o
  5  2  9  2  14.18  7.53  35.78  <
  5  2  -9  2  13.39  -15.06  32.01  <
  6  2  9  -2  7.69  -20.71  20.71  <
  6  2  -9  -2  8.30  -3.77  20.71  <
  6  2  9  -1  47.38  26.36  30.13  <
  6  2  -9  -1  44.30  37.66  24.48  <
  6  2  9  0  21227.60  20759.20  374.23  o
  6  2  -9  0  21019.60  21555.80  368.55  o
  6  2  9  1  1821.92  2022.77  93.23  o
  6  2  -9  1  1832.64  1926.56  93.84  o
  6  2  9  2  216.01  145.02  45.27  o
  6  2  -9  2  211.94  193.98  47.10  o
  7  2  9  -2  41.20  -3.77  26.37  <
  7  2  -9  -2  43.89  24.48  28.25  <
  7  2  9  -1  7.46  35.78  32.00  <
  7  2  -9  -1  10.93  -24.48  28.24  <
  7  2  9  0  1380.76  1352.20  81.22  o
  7  2  -9  0  1394.59  1207.01  83.74  o
  7  2  9  1  738.90  763.19  71.54  o
  7  2  -9  1  768.99  657.69  71.90  o
  7  2  9  2  82.60  103.57  43.30  <
  7  2  -9  2  81.04  86.62  41.42  <
  8  2  9  -2  1.08  7.53  30.13  <
  8  2  -9  -2  1.07  -33.89  26.35  <
  8  2  9  -1  232.86  299.46  48.87  o
  8  2  -9  -1  251.26  222.24  45.24  o
  8  2  9  0  6034.41  6061.23  170.32  o
  8  2  -9  0  5959.47  5943.24  172.61  o
  8  2  9  1  44.93  -30.13  28.24  <
  8  2  -9  1  55.84  22.60  39.55  <
  8  2  9  2  33.18  28.24  37.66  <
  8  2  -9  2  26.60  -33.89  35.77  <
  9  2  9  -2  34.75  -1.88  32.01  <
  9  2  -9  -2  33.69  0.00  30.13  <
  9  2  9  -1  173.37  233.52  48.89  o
  9  2  -9  -1  169.35  160.07  47.09  o
  9  2  9  0  1706.74  1631.55  90.90  o
  9  2  -9  0  1686.96  1816.36  97.45  o
  9  2  9  1  259.46  133.72  41.58  o
  9  2  -9  1  214.96  312.62  65.80  o
  9  2  9  2  14.24  -16.95  41.42  <
  9  2  -9  2  16.43  67.79  50.83  <
  10  2  9  -2  10.42  11.30  32.01  <
  10  2  -9  -2  10.76  -24.48  30.12  <
  10  2  9  -1  330.02  339.03  52.72  o
  10  2  -9  -1  331.27  252.39  54.73  o
  10  2  9  0  17966.90  17976.70  352.31  o
  10  2  -9  0  17982.40  18455.80  386.75  o
  10  2  9  1  1100.04  910.37  91.01  o
  10  2  -9  1  1072.27  1217.56  99.44  o
  10  2  9  2  91.98  96.04  48.96  <
  10  2  -9  2  96.88  15.06  48.98  <
  11  2  9  -2  20.84  7.53  35.78  <
  11  2  -9  -2  19.48  16.95  41.42  <
  11  2  9  -1  240.32  190.21  49.02  o
  11  2  -9  -1  250.85  233.53  64.05  o
  11  2  9  0  275.82  271.20  56.51  o
  11  2  -9  0  328.76  273.10  62.22  o
  11  2  9  1  507.29  335.30  66.20  o
  11  2  -9  1  473.53  404.99  75.45  o
  11  2  9  2  58.15  -28.24  47.07  <
  11  2  -9  2  50.58  32.01  52.73  <
  12  2  9  -2  176.26  37.66  39.63  <
  12  2  -9  -2  181.93  41.43  47.15  <
  12  2  9  -1  708.04  631.16  84.94  o
  12  2  -9  -1  691.00  685.79  92.33  o
  12  2  9  0  4005.68  3927.98  164.87  o
  12  2  -9  0  4063.74  3716.55  181.46  o
  12  2  9  1  12.50  16.95  45.19  <
  12  2  -9  1  7.19  11.30  54.60  <
  12  2  9  2  147.42  101.69  54.64  <
  12  2  -9  2  157.78  97.92  64.06  <
  13  2  9  -2  26.70  50.84  47.07  <
  13  2  -9  -2  23.92  -9.41  52.72  <
  13  2  9  -1  148.83  207.14  60.21  o
  13  2  -9  -1  149.03  116.75  62.16  <
  13  2  9  0  930.01  895.05  101.84  o
  13  2  -9  0  895.62  985.47  118.51  o
  13  2  9  1  622.15  655.57  92.25  o
  13  2  -9  1  624.75  489.80  96.28  o
  13  2  9  2  31.58  -13.18  47.07  <
  13  2  -9  2  30.72  56.49  64.01  <
  14  2  9  -2  8.98  58.37  60.24  <
  14  2  -9  -2  7.68  3.77  64.02  <
  14  2  9  -1  14.78  33.89  48.95  <
  14  2  -9  -1  15.10  -50.84  60.24  <
  14  2  9  0  6922.50  7273.02  241.45  o
  14  2  -9  0  6706.28  7277.48  266.64  o
  14  2  9  1  673.18  565.16  94.38  o
  14  2  -9  1  683.07  619.79  111.25  o
  14  2  9  2  72.78  20.71  54.62  <
  14  2  -9  2  71.91  137.46  73.41  <
  15  2  9  -2  59.78  5.65  56.50  <
  15  2  -9  -2  62.19  -37.66  73.43  <
  15  2  9  -1  178.47  120.52  65.94  <
  15  2  -9  -1  170.29  158.18  92.28  <
  15  2  9  0  1062.56  906.39  122.81  o
  15  2  -9  0  1059.29  1124.97  163.82  o
  15  2  9  1  131.03  128.05  67.79  <
  15  2  -9  1  175.68  156.30  94.17  <
  15  2  9  2  18.81  7.53  60.25  <
  15  2  -9  2  18.92  -30.13  69.67  <
  16  2  9  -2  9.13  26.36  73.43  <
  16  2  -9  -2  9.18  -84.73  65.88  <
  16  2  9  -1  886.04  957.13  124.21  o
  16  2  -9  -1  886.23  930.75  154.43  o
  16  2  9  0  887.25  1104.08  133.32  o
  16  2  -9  0  859.93  1085.22  171.10  o
  16  2  9  1  78.07  26.36  73.44  <
  16  2  -9  1  79.90  120.51  97.90  <
  17  2  9  -2  16.75  -26.36  75.31  <
  17  2  -9  -2  14.54  -73.43  82.84  <
  1  3  9  -2  3.90  0.00  24.48  <
  1  3  -9  -2  3.44  16.95  20.71  <
  1  3  9  -1  756.95  716.23  56.68  o
  1  3  -9  -1  709.60  768.96  48.76  o
  1  3  9  0  8073.14  8052.24  184.72  o
  1  3  -9  0  8060.30  7510.10  183.14  o
  1  3  9  1  101.74  116.75  35.77  o
  1  3  -9  1  80.39  99.80  35.76  <
  1  3  9  2  238.53  171.39  49.04  o
  1  3  -9  2  243.50  148.79  39.67  o
  2  3  9  -2  87.06  0.00  24.51  <
  2  3  -9  -2  85.18  94.16  26.36  o
  2  3  9  -1  2960.68  2920.50  98.61  o
  2  3  -9  -1  2916.13  2937.34  82.97  o
  2  3  9  0  2630.63  2502.87  102.85  o
  2  3  -9  0  2451.42  2645.85  87.24  o
  2  3  9  1  957.26  985.82  84.73  o
  2  3  -9  1  978.32  1014.12  67.72  o
  2  3  9  2  86.26  90.39  41.42  <
  2  3  -9  2  84.84  56.49  35.79  <
  3  3  9  -2  13.94  -16.95  28.24  <
  3  3  -9  -2  14.98  18.83  22.59  <
  3  3  9  -1  507.82  425.81  52.94  o
  3  3  -9  -1  509.49  482.34  45.30  o
  3  3  9  0  12913.00  13634.30  297.38  o
  3  3  -9  0  12740.60  13155.50  221.06  o
  3  3  9  1  148.77  56.50  45.24  <
  3  3  -9  1  123.60  58.38  30.18  <
  3  3  9  2  202.91  227.88  56.47  o
  3  3  -9  2  207.12  233.53  48.93  o
  4  3  9  -2  1.46  -11.30  20.71  <
  4  3  -9  -2  1.95  28.24  28.24  <
  4  3  9  -1  83.39  62.14  35.79  <
  4  3  -9  -1  75.22  82.85  32.01  <
  4  3  9  0  7272.30  7543.72  198.57  o
  4  3  -9  0  7260.98  7479.06  172.20  o
  4  3  9  1  3.26  -13.18  37.66  <
  4  3  -9  1  8.29  -7.53  33.89  <
  4  3  9  2  6.57  37.66  41.42  <
  4  3  -9  2  7.24  -3.77  37.66  <
  5  3  9  -2  25.05  7.53  28.25  <
  5  3  -9  -2  22.32  20.71  30.13  <
  5  3  9  -1  1150.88  1233.10  82.64  o
  5  3  -9  -1  1152.28  1070.95  83.25  o
  5  3  9  0  11891.90  12761.50  267.96  o
  5  3  -9  0  11924.30  12231.50  274.96  o
  5  3  9  1  104.38  75.32  45.21  <
  5  3  -9  1  125.79  56.49  37.70  <
  5  3  9  2  222.70  184.56  54.65  o
  5  3  -9  2  226.76  167.61  50.91  o
  6  3  9  -2  49.36  69.67  35.77  <
  6  3  -9  -2  50.93  77.20  39.53  <
  6  3  9  -1  2958.86  2915.04  100.47  o
  6  3  -9  -1  3013.91  2958.67  115.63  o
  6  3  9  0  3337.34  3253.87  132.82  o
  6  3  -9  0  3153.61  3408.15  126.70  o
  6  3  9  1  963.13  1095.01  90.06  o
  6  3  -9  1  995.43  908.46  81.31  o
  6  3  9  2  103.99  35.78  47.10  <
  6  3  -9  2  111.69  5.65  39.57  <
  7  3  9  -2  3.41  1.88  32.01  <
  7  3  -9  -2  3.07  5.65  35.77  <
  7  3  9  -1  278.17  307.00  52.69  o
  7  3  -9  -1  344.26  280.65  52.84  o
  7  3  9  0  8721.09  9325.05  242.87  o
  7  3  -9  0  9177.97  8835.22  231.61  o
  7  3  9  1  84.04  47.08  50.85  <
  7  3  -9  1  59.59  60.26  43.31  <
  7  3  9  2  211.51  274.95  71.50  o
  7  3  -9  2  209.78  276.84  62.07  o
  8  3  9  -2  43.48  9.41  32.02  <
  8  3  -9  -2  46.98  -3.77  37.66  <
  8  3  9  -1  323.82  312.66  56.52  o
  8  3  -9  -1  366.28  376.72  60.26  o
  8  3  9  0  358.92  423.80  73.36  o
  8  3  -9  0  400.97  448.30  73.39  o
  8  3  9  1  34.89  7.53  43.31  <
  8  3  -9  1  43.09  16.95  41.43  <
  8  3  9  2  6.96  -41.42  45.18  <
  8  3  -9  2  7.54  -13.18  45.19  <
  9  3  9  -2  60.85  3.77  33.90  <
  9  3  -9  -2  61.46  43.31  45.20  <
  9  3  9  -1  1217.58  1151.79  92.59  o
  9  3  -9  -1  1158.87  1212.05  109.17  o
  9  3  9  0  6140.70  5949.49  217.28  o
  9  3  -9  0  6042.67  6388.21  211.23  o
  9  3  9  1  111.95  143.11  58.36  <
  9  3  -9  1  154.40  175.13  60.25  <
  9  3  9  2  67.86  90.38  58.36  <
  9  3  -9  2  78.15  88.50  52.72  <
  10  3  9  -2  27.30  15.06  39.54  <
  10  3  -9  -2  27.07  18.83  47.07  <
  10  3  9  -1  1434.53  1530.90  103.32  o
  10  3  -9  -1  1435.02  1636.48  121.86  o
  10  3  9  0  1768.77  1736.83  117.05  o
  10  3  -9  0  1659.01  1614.10  120.84  o
  10  3  9  1  604.50  614.13  94.18  o
  10  3  -9  1  615.02  553.86  86.77  o
  10  3  9  2  99.39  37.66  58.39  <
  10  3  -9  2  90.34  32.01  56.50  <
  11  3  9  -2  28.67  11.30  39.54  <
  11  3  -9  -2  37.45  60.25  47.07  <
  11  3  9  -1  449.13  512.34  77.12  o
  11  3  -9  -1  444.22  563.20  88.34  o
  11  3  9  0  3353.87  3109.82  154.29  o
  11  3  -9  0  2993.35  3663.84  168.15  o
  11  3  9  1  425.65  369.17  81.06  o
  11  3  -9  1  447.32  363.53  75.46  o
  11  3  9  2  130.45  24.48  54.64  <
  11  3  -9  2  131.92  118.63  65.91  <
  12  3  9  -2  3.50  -33.89  39.54  <
  12  3  -9  -2  2.43  -50.84  48.95  <
  12  3  9  -1  400.05  384.24  71.60  o
  12  3  -9  -1  350.36  389.87  77.17  o
  12  3  9  0  9350.99  9382.46  278.57  o
  12  3  -9  0  9387.24  9688.15  295.24  o
  12  3  9  1  107.03  30.13  56.51  <
  12  3  -9  1  100.44  41.43  62.16  <
  12  3  9  2  19.38  -5.65  64.02  <
  12  3  -9  2  15.66  9.41  60.25  <
  13  3  9  -2  35.87  -18.83  43.31  <
  13  3  -9  -2  39.14  65.90  60.25  <
  13  3  9  -1  1359.44  1374.09  126.25  o
  13  3  -9  -1  1378.56  1315.68  141.53  o
  13  3  9  0  5255.54  5686.63  218.29  o
  13  3  -9  0  5337.75  6012.17  247.28  o
  13  3  9  1  366.51  173.27  71.74  <
  13  3  -9  1  365.03  248.61  79.22  o
  13  3  9  2  96.75  13.18  65.92  <
  13  3  -9  2  95.65  65.91  67.80  <
  14  3  9  -2  16.69  3.77  50.84  <
  14  3  -9  -2  14.24  -5.65  65.90  <
  14  3  9  -1  878.10  919.46  111.07  o
  14  3  -9  -1  889.64  921.35  124.29  o
  14  3  9  0  65.18  32.01  62.14  <
  14  3  -9  0  76.71  92.27  84.73  <
  14  3  9  1  935.56  866.72  122.61  o
  14  3  -9  1  926.51  887.44  135.73  o
  14  3  9  2  55.70  -26.36  71.55  <
  14  3  -9  2  56.29  144.99  84.70  <
  15  3  9  -2  149.10  124.28  64.04  <
  15  3  -9  -2  150.99  9.42  81.00  <
  15  3  9  -1  669.62  755.41  107.22  o
  15  3  -9  -1  680.64  482.26  103.89  o
  15  3  9  0  2763.22  2669.60  166.43  o
  15  3  -9  0  2968.66  2730.38  240.38  o
  15  3  9  1  268.44  224.11  84.78  <
  15  3  -9  1  216.85  195.85  96.05  <
  16  3  9  -2  19.92  56.49  71.54  <
  16  3  -9  -2  19.59  47.07  92.26  <
  16  3  9  -1  165.68  105.45  71.59  <
  16  3  -9  -1  194.19  109.22  107.37  <
  1  4  9  -2  150.84  94.16  32.07  <
  1  4  -9  -2  148.81  112.99  33.93  o
  1  4  9  -1  1740.00  1818.56  97.71  o
  1  4  -9  -1  1729.01  1929.84  87.53  o
  1  4  9  0  212.54  150.66  49.02  o
  1  4  -9  0  217.13  192.10  45.23  o
  1  4  9  1  2264.85  2317.14  131.84  o
  1  4  -9  1  2271.26  2124.68  98.98  o
  1  4  9  2  40.61  11.30  50.84  <
  1  4  -9  2  45.62  28.24  37.66  <
  2  4  9  -2  82.17  -16.95  33.91  <
  2  4  -9  -2  84.38  18.83  28.27  <
  2  4  9  -1  1142.19  1376.21  93.40  o
  2  4  -9  -1  1211.79  1059.57  74.14  o
  2  4  9  0  6032.28  5970.83  191.84  o
  2  4  -9  0  5956.37  5877.57  165.54  o
  2  4  9  1  1277.80  1247.96  100.01  o
  2  4  -9  1  1285.27  1342.23  84.59  o
  2  4  9  2  147.91  92.27  58.41  <
  2  4  -9  2  153.50  90.39  47.12  <
  3  4  9  -2  166.84  113.00  47.12  <
  3  4  -9  -2  158.93  143.12  33.92  o
  3  4  9  -1  2214.84  2291.20  116.62  o
  3  4  -9  -1  2201.21  2327.03  93.55  o
  3  4  9  0  1529.23  1599.10  105.32  o
  3  4  -9  0  1617.15  1420.08  85.78  o
  3  4  9  1  3301.71  3469.41  136.76  o
  3  4  -9  1  3304.50  3331.55  137.70  o
  3  4  9  2  32.34  -11.30  41.43  <
  3  4  -9  2  26.89  28.24  45.19  <
  4  4  9  -2  5.72  37.66  39.54  <
  4  4  -9  -2  4.92  -3.77  26.36  <
  4  4  9  -1  81.66  107.33  43.29  <
  4  4  -9  -1  79.74  109.22  45.18  <
  4  4  9  0  4742.95  4970.91  170.39  o
  4  4  -9  0  4821.35  4473.78  176.46  o
  4  4  9  1  43.21  -11.30  41.43  <
  4  4  -9  1  37.22  -1.88  43.31  <
  4  4  9  2  1.18  -1.88  50.84  <
  4  4  -9  2  0.72  7.53  48.95  <
  5  4  9  -2  131.33  56.49  39.59  <
  5  4  -9  -2  132.08  135.59  45.19  <
  5  4  9  -1  2382.75  2561.18  117.90  o
  5  4  -9  -1  2353.01  2406.35  112.94  o
  5  4  9  0  2447.58  2002.34  122.88  o
  5  4  -9  0  2395.94  2187.19  125.56  o
  5  4  9  1  2045.37  2195.65  129.49  o
  5  4  -9  1  2072.25  1901.43  119.59  o
  5  4  9  2  20.14  26.36  50.84  <
  5  4  -9  2  17.72  -16.95  47.07  <
  6  4  9  -2  42.47  28.24  37.66  <
  6  4  -9  -2  38.12  -20.71  32.01  <
  6  4  9  -1  564.76  721.54  78.77  o
  6  4  -9  -1  606.00  572.73  69.78  o
  6  4  9  0  1001.50  921.57  101.97  o
  6  4  -9  0  972.35  904.59  86.88  o
  6  4  9  1  517.25  452.10  82.98  o
  6  4  -9  1  532.81  499.19  86.71  o
  6  4  9  2  113.95  79.09  56.51  <
  6  4  -9  2  105.39  124.28  60.25  <
  7  4  9  -2  179.85  79.10  47.14  <
  7  4  -9  -2  190.25  41.43  35.88  <
  7  4  9  -1  1036.31  1159.09  116.54  o
  7  4  -9  -1  1079.04  1004.59  94.46  o
  7  4  9  0  1479.35  1472.45  126.34  o
  7  4  -9  0  1411.81  1434.66  122.47  o
  7  4  9  1  1552.24  1500.73  130.25  o
  7  4  -9  1  1402.91  1592.91  125.69  o
  7  4  9  2  109.75  152.53  67.77  <
  7  4  -9  2  108.68  114.87  64.02  <
  8  4  9  -2  17.15  1.88  45.19  <
  8  4  -9  -2  19.11  26.36  45.19  <
  8  4  9  -1  318.94  293.81  69.72  o
  8  4  -9  -1  319.08  348.43  69.65  o
  8  4  9  0  8391.05  8787.67  286.97  o
  8  4  -9  0  8228.13  8972.28  258.85  o
  8  4  9  1  15.15  -7.53  56.49  <
  8  4  -9  1  21.37  -41.42  45.18  <
  8  4  9  2  21.81  45.19  64.02  <
  8  4  -9  2  18.37  16.95  58.37  <
  9  4  9  -2  81.68  65.91  48.96  <
  9  4  -9  -2  86.89  52.72  48.97  <
  9  4  9  -1  1171.77  1279.77  120.33  o
  9  4  -9  -1  1205.95  1183.68  113.15  o
  9  4  9  0  1527.85  1692.96  138.99  o
  9  4  -9  0  1540.56  1702.40  135.21  o
  9  4  9  1  1574.10  1445.97  145.51  o
  9  4  -9  1  1494.98  1534.48  135.61  o
  9  4  9  2  18.99  105.44  69.64  <
  9  4  -9  2  22.54  7.53  58.37  <
  10  4  9  -2  48.47  -35.78  43.30  <
  10  4  -9  -2  43.74  26.36  48.96  <
  10  4  9  -1  802.17  870.47  111.03  o
  10  4  -9  -1  843.50  787.59  98.10  o
  10  4  9  0  2008.29  2402.63  160.71  o
  10  4  -9  0  1993.57  1946.22  135.96  o
  10  4  9  1  615.26  631.07  111.12  o
  10  4  -9  1  589.05  408.77  85.03  o
  10  4  9  2  55.34  124.28  79.06  <
  10  4  -9  2  58.04  116.74  73.42  <
  11  4  9  -2  15.21  33.89  52.72  <
  11  4  -9  -2  10.79  20.71  54.60  <
  11  4  9  -1  433.81  455.82  90.38  o
  11  4  -9  -1  420.48  325.85  77.34  o
  11  4  9  0  287.12  137.48  73.55  <
  11  4  -9  0  296.31  177.03  66.02  <
  11  4  9  1  1626.87  2120.82  175.75  o
  11  4  -9  1  1708.76  1589.30  139.88  o
  11  4  9  2  13.59  77.20  75.30  <
  11  4  -9  2  13.01  67.78  71.54  <
  12  4  9  -2  20.20  62.14  58.36  <
  12  4  -9  -2  18.45  24.48  60.25  <
  12  4  9  -1  253.88  320.15  82.80  o
  12  4  -9  -1  247.82  325.80  79.02  o
  12  4  9  0  2760.29  2705.62  173.81  o
  12  4  -9  0  2907.47  2745.55  170.54  o
  12  4  9  1  16.54  -24.48  69.67  <
  12  4  -9  1  11.19  52.72  73.43  <
  12  4  9  2  18.17  56.49  77.19  <
  12  4  -9  2  17.60  109.21  79.06  <
  13  4  9  -2  67.51  -7.53  54.61  <
  13  4  -9  -2  62.61  -41.43  62.14  <
  13  4  9  -1  165.53  178.90  79.08  <
  13  4  -9  -1  164.75  210.91  80.94  <
  13  4  9  0  1114.10  1243.71  146.70  o
  13  4  -9  0  1208.09  1089.26  132.19  o
  13  4  9  1  1373.54  1579.41  165.36  o
  13  4  -9  1  1424.08  1053.60  130.94  o
  14  4  9  -2  24.94  -7.53  62.14  <
  14  4  -9  -2  22.79  -1.88  71.55  <
  14  4  9  -1  57.56  -13.18  67.79  <
  14  4  -9  -1  55.95  82.85  86.61  <
  15  4  9  -2  90.76  64.02  69.68  <
  15  4  -9  -2  86.04  -41.43  77.20  <
  1  5  9  -2  46.25  30.13  41.43  <
  1  5  -9  -2  43.68  18.83  33.90  <
  1  5  9  -1  446.67  327.76  71.74  o
  1  5  -9  -1  394.28  536.82  69.42  o
  1  5  9  0  4937.43  4634.40  200.45  o
  1  5  -9  0  4935.96  5201.64  164.20  o
  1  5  9  1  193.58  177.02  69.69  <
  1  5  -9  1  169.09  112.99  60.29  <
  1  5  9  2  322.30  465.19  110.97  o
  1  5  -9  2  325.21  340.89  77.20  o
  2  5  9  -2  6.70  -39.54  37.65  <
  2  5  -9  -2  7.42  -18.83  28.24  <
  2  5  9  -1  1740.54  1731.20  111.30  o
  2  5  -9  -1  1746.47  1661.44  90.94  o
  2  5  9  0  4183.50  3877.39  183.18  o
  2  5  -9  0  3970.82  3649.99  160.71  o
  2  5  9  1  188.44  94.16  73.49  <
  2  5  -9  1  182.06  116.76  58.42  <
  2  5  9  2  54.67  30.13  67.79  <
  2  5  -9  2  54.02  52.72  58.37  <
  3  5  9  -2  29.09  -56.49  41.41  <
  3  5  -9  -2  25.66  35.78  39.54  <
  3  5  9  -1  22.06  -13.18  41.42  <
  3  5  -9  -1  22.82  62.14  47.06  <
  3  5  9  0  5106.62  4963.75  197.63  o
  3  5  -9  0  4819.28  4796.20  192.98  o
  3  5  9  1  323.33  457.66  92.12  o
  3  5  -9  1  290.70  301.33  77.21  o
  3  5  9  2  342.29  242.96  82.96  <
  3  5  -9  2  350.16  399.28  84.69  o
  4  5  9  -2  7.85  -22.59  37.66  <
  4  5  -9  -2  8.86  -33.89  41.42  <
  4  5  9  -1  33.45  20.71  48.96  <
  4  5  -9  -1  32.70  -41.42  39.53  <
  4  5  9  0  1680.63  1974.12  138.47  o
  4  5  -9  0  1652.48  1712.00  126.11  o
  4  5  9  1  5.48  -11.30  52.72  <
  4  5  -9  1  3.92  22.59  56.49  <
  4  5  9  2  4.06  -58.37  60.24  <
  4  5  -9  2  4.59  80.96  73.42  <
  5  5  9  -2  25.79  -24.48  43.31  <
  5  5  -9  -2  25.11  11.30  43.31  <
  5  5  9  -1  564.65  486.02  84.90  o
  5  5  -9  -1  577.76  563.26  82.91  o
  5  5  9  0  6685.84  7297.96  243.28  o
  5  5  -9  0  6855.92  6202.70  276.72  o
  5  5  9  1  256.80  331.45  82.79  o
  5  5  -9  1  293.03  175.15  81.07  <
  5  5  9  2  272.06  160.08  79.17  <
  5  5  -9  2  278.97  133.71  82.95  <
  6  5  9  -2  9.26  -28.24  41.42  <
  6  5  -9  -2  8.54  -24.48  43.30  <
  6  5  9  -1  1198.60  1226.99  116.78  o
  6  5  -9  -1  1244.50  1200.65  124.51  o
  6  5  9  0  794.66  768.71  105.56  o
  6  5  -9  0  831.32  793.22  107.47  o
  6  5  9  1  210.99  161.95  73.48  <
  6  5  -9  1  206.14  141.24  73.48  <
  6  5  9  2  64.34  -77.20  58.35  <
  6  5  -9  2  68.14  58.37  71.56  <
  7  5  9  -2  33.74  0.00  50.84  <
  7  5  -9  -2  36.46  -16.95  47.07  <
  7  5  9  -1  357.72  380.45  88.50  o
  7  5  -9  -1  411.21  244.86  73.64  o
  7  5  9  0  5477.38  6175.79  243.20  o
  7  5  -9  0  5687.67  5743.70  234.15  o
  7  5  9  1  67.16  37.66  67.79  <
  7  5  -9  1  60.43  5.65  60.26  <
  7  5  9  2  278.80  325.80  97.89  o
  7  5  -9  2  279.88  261.77  84.76  o
  8  5  9  -2  8.36  82.85  60.23  <
  8  5  -9  -2  9.26  22.59  54.60  <
  8  5  9  -1  227.51  250.47  77.19  o
  8  5  -9  -1  242.90  335.22  79.00  o
  8  5  9  0  27.60  11.30  60.25  <
  8  5  -9  0  73.08  26.36  58.38  <
  8  5  9  1  12.24  -30.13  64.02  <
  8  5  -9  1  15.66  5.65  64.02  <
  8  5  9  2  11.64  26.36  75.32  <
  8  5  -9  2  11.03  90.38  75.30  <
  9  5  9  -2  17.13  32.01  58.37  <
  9  5  -9  -2  16.01  -18.83  50.84  <
  9  5  9  -1  1409.10  1536.22  154.24  o
  9  5  -9  -1  1318.89  1630.36  144.25  o
  9  5  9  0  2633.43  2545.01  173.92  o
  9  5  -9  0  2495.75  2627.75  169.24  o
  9  5  9  1  115.19  154.41  79.07  <
  9  5  -9  1  165.45  92.27  75.35  <
  10  5  9  -2  7.59  -9.41  58.37  <
  10  5  -9  -2  7.61  -15.06  54.60  <
  10  5  9  -1  898.29  893.09  122.48  o
  10  5  -9  -1  886.15  898.74  120.56  o
  10  5  9  0  5099.48  5274.74  242.80  o
  10  5  -9  0  4878.63  4629.54  226.25  o
  10  5  9  1  50.03  1.88  77.20  <
  10  5  -9  1  45.39  26.36  73.44  <
  11  5  9  -2  51.65  1.88  60.26  <
  11  5  -9  -2  54.20  7.53  56.49  <
  11  5  9  -1  591.65  529.32  111.22  o
  11  5  -9  -1  576.43  655.52  103.47  o
  11  5  9  0  1494.76  1338.28  160.58  o
  11  5  -9  0  1209.90  1620.69  161.06  o
  12  5  9  -2  9.19  -67.78  64.01  <
  12  5  -9  -2  7.64  22.59  65.90  <
  12  5  9  -1  388.20  305.11  98.01  o
  12  5  -9  -1  322.45  468.95  95.88  o
  13  5  9  -2  3.71  -15.06  77.20  <
  13  5  -9  -2  3.62  -71.55  62.12  <
  1  6  9  -2  52.31  67.79  56.48  <
  1  6  -9  -2  57.68  33.89  43.31  <
  1  6  9  -1  3468.08  3560.78  209.15  o
  1  6  -9  -1  3489.17  3634.47  163.41  o
  1  6  9  0  23.74  48.96  79.08  <
  1  6  -9  0  30.05  -16.95  54.60  <
  1  6  9  1  1090.21  1147.58  171.38  o
  1  6  -9  1  1079.61  900.72  117.22  o
  2  6  9  -2  74.03  -3.77  60.26  <
  2  6  -9  -2  71.60  18.83  45.20  <
  2  6  9  -1  1162.56  1032.76  126.56  o
  2  6  -9  -1  1236.30  1315.52  116.62  o
  2  6  9  0  71.83  77.20  71.55  <
  2  6  -9  0  72.56  86.62  67.78  <
  2  6  9  1  135.38  114.87  79.10  <
  2  6  -9  1  156.95  35.78  67.83  <
  3  6  9  -2  60.99  146.87  65.86  <
  3  6  -9  -2  56.33  69.67  54.60  <
  3  6  9  -1  3236.98  2923.90  175.11  o
  3  6  -9  -1  3161.07  3116.26  160.67  o
  3  6  9  0  327.40  333.35  92.28  o
  3  6  -9  0  299.00  265.55  84.78  o
  3  6  9  1  1510.82  1594.65  167.55  o
  3  6  -9  1  1500.19  1504.17  177.17  o
  4  6  9  -2  4.95  -5.65  50.84  <
  4  6  -9  -2  5.27  5.65  48.96  <
  4  6  9  -1  55.59  69.67  67.78  <
  4  6  -9  -1  53.99  0.00  64.02  <
  4  6  9  0  1127.78  1166.48  141.25  o
  4  6  -9  0  1176.07  1347.43  161.71  o
  4  6  9  1  70.52  52.72  79.09  <
  4  6  -9  1  65.71  -7.53  84.74  <
  5  6  9  -2  99.63  -1.88  52.74  <
  5  6  -9  -2  96.11  69.67  69.68  <
  5  6  9  -1  3600.87  4021.48  186.48  o
  5  6  -9  -1  3621.32  3581.63  207.87  o
  5  6  9  0  224.54  229.75  90.39  <
  5  6  -9  0  255.59  188.32  94.20  <
  6  6  9  -2  22.31  58.37  65.90  <
  6  6  -9  -2  15.58  54.60  56.48  <
  6  6  9  -1  832.07  874.20  122.39  o
  6  6  -9  -1  769.09  889.23  120.35  o
  6  6  9  0  400.96  371.04  99.85  o
  6  6  -9  0  417.07  468.98  99.76  o
  7  6  9  -2  79.03  28.25  64.03  <
  7  6  -9  -2  82.51  105.45  67.78  <
  7  6  9  -1  2741.59  3024.36  183.70  o
  7  6  -9  -1  2855.77  2945.37  176.97  o
  7  6  9  0  1651.62  2126.41  183.39  o
  7  6  -9  0  1707.50  1587.33  158.68  o
  8  6  9  -2  71.35  56.49  65.91  <
  8  6  -9  -2  76.84  65.90  67.79  <
  8  6  9  -1  15.79  56.49  75.31  <
  8  6  -9  -1  21.21  26.36  71.55  <
  9  6  9  -2  101.39  60.26  73.45  <
  9  6  -9  -2  97.93  28.25  67.80  <
  9  6  9  -1  1779.80  1926.76  176.80  o
  9  6  -9  -1  1764.51  2054.94  170.67  o
  10  6  9  -2  53.99  7.53  73.44  <
  10  6  -9  -2  47.06  -69.67  65.89  <
  1  7  9  -2  129.44  62.14  90.40  <
  1  7  -9  -2  127.14  84.74  69.69  <
  1  7  9  -1  71.65  99.80  96.03  <
  1  7  -9  -1  71.94  -30.13  82.85  <
  2  7  9  -2  120.82  82.85  73.45  <
  2  7  -9  -2  116.57  1.88  60.28  <
  2  7  -9  -1  1.29  -144.98  109.17  <
  3  7  9  -2  197.23  107.34  81.02  <
  3  7  -9  -2  192.43  11.30  77.25  <
  4  7  9  -2  2.06  1.88  71.55  <
  4  7  -9  -2  2.62  -99.79  67.76  <
  5  7  9  -2  92.76  64.02  79.09  <
  5  7  -9  -2  82.25  -48.96  65.90  <
  6  7  9  -2  121.49  45.19  92.29  <
  6  7  -9  -2  115.64  -1.88  79.10  <
  0  0  10  0  36095.40  36242.50  856.39  o
  0  0  -10  0  36103.50  36046.50  838.66  o
  0  0  10  1  2639.69  2582.16  91.24  o
  0  0  -10  1  2634.87  2731.58  88.12  o
  0  0  10  2  75.71  64.03  28.25  <
  0  0  -10  2  75.01  45.20  26.38  <
  1  0  10  1  352.29  312.75  32.14  o
  1  0  -10  1  375.47  337.26  30.26  o
  1  0  10  2  8.86  26.36  18.82  <
  1  0  -10  2  9.28  15.06  16.95  <
  2  0  10  0  8.06  50.84  30.11  <
  2  0  -10  0  0.43  -1.88  24.48  <
  2  0  10  1  26.11  33.89  20.71  <
  2  0  -10  1  32.77  22.60  16.95  <
  2  0  10  2  32.63  -16.95  13.18  <
  2  0  -10  2  32.66  11.30  22.60  <
  3  0  10  1  462.71  414.55  34.08  o
  3  0  -10  1  405.46  487.99  41.21  o
  3  0  10  2  9.63  24.48  22.59  <
  3  0  -10  2  9.48  -1.88  20.71  <
  4  0  10  0  13228.40  13041.30  269.57  o
  4  0  -10  0  13318.30  12775.90  281.59  o
  4  0  10  1  2178.04  2242.53  57.91  o
  4  0  -10  1  2173.42  2185.83  64.12  o
  4  0  10  2  114.01  112.99  24.48  o
  4  0  -10  2  114.72  126.18  32.00  o
  5  0  10  1  353.96  382.42  33.83  o
  5  0  -10  1  350.83  412.56  37.51  o
  5  0  10  2  13.78  -20.71  20.71  <
  5  0  -10  2  11.73  15.06  20.71  <
  6  0  10  0  2804.02  2956.10  108.54  o
  6  0  -10  0  2745.78  2668.59  112.00  o
  6  0  10  1  62.08  52.73  22.60  <
  6  0  -10  1  72.16  16.95  20.74  <
  6  0  10  2  5.59  -9.41  24.48  <
  6  0  -10  2  7.82  -33.89  20.70  <
  7  0  10  1  201.40  173.27  33.94  o
  7  0  -10  1  223.29  177.04  32.09  o
  7  0  10  2  5.35  22.59  26.36  <
  7  0  -10  2  5.55  37.66  24.47  <
  8  0  10  0  24120.20  23687.30  455.32  o
  8  0  -10  0  24066.50  23904.60  453.43  o
  8  0  10  1  1197.87  1144.52  64.37  o
  8  0  -10  1  1184.64  1182.21  66.00  o
  8  0  10  2  0.23  15.06  28.24  <
  8  0  -10  2  0.53  0.00  28.24  <
  9  0  10  1  93.76  84.74  37.67  <
  9  0  -10  1  93.23  52.73  35.80  <
  9  0  10  2  1.46  -7.53  30.13  <
  9  0  -10  2  3.03  -43.31  28.23  <
  10  0  10  0  7189.33  7095.48  311.63  o
  10  0  -10  0  7191.08  7391.37  273.59  o
  10  0  10  1  1542.98  1533.19  84.91  o
  10  0  -10  1  1531.61  1670.83  93.65  o
  10  0  10  2  59.34  15.06  35.79  <
  10  0  -10  2  54.57  7.53  35.78  <
  11  0  10  1  143.10  73.44  47.12  <
  11  0  -10  1  116.89  90.39  41.44  <
  11  0  10  2  8.25  -11.30  33.89  <
  11  0  -10  2  9.31  -9.41  41.42  <
  12  0  10  0  5356.64  4882.99  364.99  o
  12  0  -10  0  5494.18  5339.59  252.54  o
  12  0  10  1  686.54  663.18  88.60  o
  12  0  -10  1  635.44  697.06  86.53  o
  12  0  10  2  32.48  3.77  43.31  <
  12  0  -10  2  31.05  48.96  48.95  <
  13  0  10  1  59.22  101.68  54.59  <
  13  0  -10  1  56.24  26.36  56.49  <
  13  0  10  2  39.54  32.01  50.84  <
  13  0  -10  2  37.75  35.78  54.61  <
  14  0  10  0  2541.10  1858.42  185.07  o
  14  0  -10  0  2411.02  2120.45  215.86  o
  14  0  10  1  189.18  158.19  65.93  <
  14  0  -10  1  198.93  167.60  69.70  <
  14  0  10  2  62.11  79.09  64.02  <
  14  0  -10  2  74.86  -7.53  69.68  <
  15  0  10  1  27.73  -58.37  67.78  <
  15  0  -10  1  30.57  94.15  67.77  <
  15  0  10  2  10.87  -13.18  64.02  <
  15  0  -10  2  9.05  26.36  73.43  <
  16  0  10  0  1087.20  996.84  262.02  o
  16  0  -10  0  1085.94  1155.13  212.84  o
  16  0  10  1  1047.67  1251.20  165.43  o
  16  0  -10  1  1083.78  1042.07  147.06  o
  16  0  10  2  39.25  56.49  73.43  <
  16  0  -10  2  42.24  37.66  82.85  <
  17  0  10  1  27.52  0.00  101.68  <
  17  0  -10  1  30.48  -7.53  90.38  <
  17  0  10  2  9.81  -15.06  90.38  <
  17  0  -10  2  6.55  16.95  92.26  <
  0  1  10  -2  116.41  56.50  30.17  <
  0  1  -10  -2  120.28  113.00  32.02  o
  0  1  10  -1  220.82  267.47  41.36  o
  0  1  -10  -1  242.68  259.95  39.53  o
  0  1  10  0  25257.20  24803.10  456.17  o
  0  1  -10  0  25356.30  26079.20  432.31  o
  0  1  10  1  182.06  186.46  33.90  o
  0  1  -10  1  178.07  150.67  32.05  o
  0  1  10  2  11.08  -5.65  39.54  <
  0  1  -10  2  8.32  50.84  39.53  <
  1  1  10  -2  0.37  0.00  18.83  <
  1  1  -10  -2  0.27  3.77  18.83  <
  1  1  10  -1  648.34  665.40  39.51  o
  1  1  -10  -1  625.54  640.87  37.63  o
  1  1  10  0  670.48  625.82  39.78  o
  1  1  -10  0  655.37  735.13  37.30  o
  1  1  10  1  21.91  18.83  24.48  <
  1  1  -10  1  18.74  -1.88  18.83  <
  1  1  10  2  20.98  47.07  30.12  <
  1  1  -10  2  21.79  13.18  22.60  <
  2  1  10  -2  1.92  -13.18  16.94  <
  2  1  -10  -2  2.14  26.36  18.82  <
  2  1  10  -1  118.51  90.40  22.63  o
  2  1  -10  -1  121.72  139.36  30.11  o
  2  1  10  0  5539.39  5644.41  131.80  o
  2  1  -10  0  5578.20  5519.36  122.31  o
  2  1  10  1  57.79  48.96  28.25  <
  2  1  -10  1  58.60  39.54  24.49  <
  2  1  10  2  3.16  54.60  31.99  <
  2  1  -10  2  3.61  11.30  22.59  <
  3  1  10  -2  4.91  -5.65  15.06  <
  3  1  -10  -2  4.70  -5.65  22.59  <
  3  1  10  -1  596.44  588.03  47.15  o
  3  1  -10  -1  593.07  665.30  48.75  o
  3  1  10  0  2163.10  2255.76  80.56  o
  3  1  -10  0  2226.53  2208.75  75.72  o
  3  1  10  1  249.92  143.15  32.18  o
  3  1  -10  1  245.59  250.52  39.55  o
  3  1  10  2  21.41  47.07  32.00  <
  3  1  -10  2  20.33  -3.77  24.48  <
  4  1  10  -2  86.99  99.81  22.58  o
  4  1  -10  -2  85.92  22.60  20.75  <
  4  1  10  -1  2515.93  2572.48  61.75  o
  4  1  -10  -1  2551.82  2627.44  78.73  o
  4  1  10  0  56279.40  53703.60  676.17  o
  4  1  -10  0  56363.80  55201.60  785.48  o
  4  1  10  1  287.14  246.76  32.11  o
  4  1  -10  1  293.39  218.51  41.56  o
  4  1  10  2  15.73  26.36  22.59  <
  4  1  -10  2  18.19  0.00  26.36  <
  5  1  10  -2  11.51  18.83  18.83  <
  5  1  -10  -2  10.79  15.06  20.71  <
  5  1  10  -1  593.48  712.34  54.26  o
  5  1  -10  -1  621.68  612.48  43.38  o
  5  1  10  0  1846.07  1761.27  72.30  o
  5  1  -10  0  1843.23  1746.16  63.03  o
  5  1  10  1  25.28  20.71  22.60  <
  5  1  -10  1  31.54  28.24  32.01  <
  5  1  10  2  50.89  18.83  22.61  <
  5  1  -10  2  50.74  24.48  30.14  <
  6  1  10  -2  26.45  20.71  18.83  <
  6  1  -10  -2  25.12  0.00  20.72  <
  6  1  10  -1  265.55  214.73  37.75  o
  6  1  -10  -1  251.06  246.74  33.91  o
  6  1  10  0  398.52  470.97  48.80  o
  6  1  -10  0  396.84  435.17  41.34  o
  6  1  10  1  27.92  33.89  26.36  <
  6  1  -10  1  25.13  18.83  26.36  <
  6  1  10  2  10.73  -37.66  26.35  <
  6  1  -10  2  8.62  -41.42  30.12  <
  7  1  10  -2  21.28  0.00  18.83  <
  7  1  -10  -2  20.26  -7.53  20.71  <
  7  1  10  -1  728.78  831.11  58.05  o
  7  1  -10  -1  766.62  753.88  47.17  o
  7  1  10  0  1475.47  1565.62  71.16  o
  7  1  -10  0  1458.85  1454.30  73.59  o
  7  1  10  1  86.19  103.57  39.53  <
  7  1  -10  1  87.50  71.56  35.79  <
  7  1  10  2  3.79  0.00  30.13  <
  7  1  -10  2  5.76  16.95  33.89  <
  8  1  10  -2  25.07  11.30  26.36  <
  8  1  -10  -2  27.82  28.24  24.48  <
  8  1  10  -1  71.61  69.67  30.13  <
  8  1  -10  -1  54.79  111.10  37.62  <
  8  1  10  0  21727.40  22114.70  378.02  o
  8  1  -10  0  22141.10  22163.50  350.96  o
  8  1  10  1  961.79  885.90  75.64  o
  8  1  -10  1  967.09  957.53  73.54  o
  8  1  10  2  33.67  -7.53  33.90  <
  8  1  -10  2  30.12  37.66  39.54  <
  9  1  10  -2  15.40  11.30  24.48  <
  9  1  -10  -2  17.91  0.00  30.13  <
  9  1  10  -1  977.66  908.51  75.62  o
  9  1  -10  -1  934.12  981.98  67.67  o
  9  1  10  0  472.60  474.73  58.39  o
  9  1  -10  0  496.44  516.18  60.24  o
  9  1  10  1  541.30  457.80  62.34  o
  9  1  -10  1  526.86  553.87  67.76  o
  9  1  10  2  127.51  131.82  41.43  o
  9  1  -10  2  141.12  114.87  43.33  <
  10  1  10  -2  45.85  0.00  35.78  <
  10  1  -10  -2  37.63  16.95  33.90  <
  10  1  10  -1  468.20  369.22  54.82  o
  10  1  -10  -1  478.75  452.11  62.22  o
  10  1  10  0  30022.10  28593.70  507.10  o
  10  1  -10  0  29941.00  28895.80  508.77  o
  10  1  10  1  187.88  86.63  37.75  <
  10  1  -10  1  194.34  152.54  47.12  o
  10  1  10  2  41.06  41.43  37.66  <
  10  1  -10  2  37.88  32.01  43.31  <
  11  1  10  -2  89.64  47.08  47.09  <
  11  1  -10  -2  90.67  43.31  39.56  <
  11  1  10  -1  695.04  742.34  73.36  o
  11  1  -10  -1  660.02  870.44  84.25  o
  11  1  10  0  606.89  553.88  67.94  o
  11  1  -10  0  545.22  542.55  77.24  o
  11  1  10  1  159.20  165.72  48.96  o
  11  1  -10  1  157.65  158.18  60.26  <
  11  1  10  2  42.61  7.53  37.66  <
  11  1  -10  2  41.83  0.00  43.31  <
  12  1  10  -2  60.01  73.44  52.72  <
  12  1  -10  -2  62.06  7.53  43.32  <
  12  1  10  -1  902.99  1183.40  102.85  o
  12  1  -10  -1  923.59  994.98  99.69  o
  12  1  10  0  9119.43  9222.21  232.37  o
  12  1  -10  0  9100.09  8870.94  277.18  o
  12  1  10  1  500.17  489.76  69.72  o
  12  1  -10  1  494.47  429.48  79.21  o
  12  1  10  2  3.85  7.53  43.31  <
  12  1  -10  2  5.86  33.89  54.60  <
  13  1  10  -2  61.69  80.97  54.60  <
  13  1  -10  -2  58.18  47.07  56.49  <
  13  1  10  -1  404.53  423.79  79.08  o
  13  1  -10  -1  420.24  438.87  86.62  o
  13  1  10  0  336.43  273.10  65.99  o
  13  1  -10  0  314.13  220.35  67.89  o
  13  1  10  1  218.62  224.10  62.14  o
  13  1  -10  1  206.58  58.38  60.33  <
  13  1  10  2  47.72  32.01  50.84  <
  13  1  -10  2  42.63  28.24  52.73  <
  14  1  10  -2  39.97  54.61  56.49  <
  14  1  -10  -2  41.61  24.48  56.49  <
  14  1  10  -1  56.79  92.27  64.01  <
  14  1  -10  -1  49.07  133.69  67.75  <
  14  1  10  0  6533.14  6147.21  273.02  o
  14  1  -10  0  6555.35  6406.61  294.23  o
  14  1  10  1  79.69  13.18  56.50  <
  14  1  -10  1  78.26  -7.53  71.56  <
  14  1  10  2  42.13  0.00  54.61  <
  14  1  -10  2  48.77  26.36  60.26  <
  15  1  10  -2  38.12  -43.31  65.90  <
  15  1  -10  -2  37.88  -28.24  64.02  <
  15  1  10  -1  785.32  908.09  129.78  o
  15  1  -10  -1  810.12  734.78  130.12  o
  15  1  10  0  499.96  508.57  111.12  o
  15  1  -10  0  537.26  258.06  100.10  <
  15  1  10  1  202.40  37.66  79.14  <
  15  1  -10  1  197.09  171.37  86.64  <
  15  1  10  2  19.85  30.13  65.90  <
  15  1  -10  2  17.48  -5.65  71.55  <
  16  1  10  -2  25.36  -107.33  88.47  <
  16  1  -10  -2  27.37  41.42  71.55  <
  16  1  10  -1  135.99  152.53  82.85  <
  16  1  -10  -1  127.04  114.87  86.63  <
  16  1  10  0  7923.94  8446.30  339.40  o
  16  1  -10  0  8012.27  7880.56  358.73  o
  16  1  10  1  789.76  614.17  120.83  o
  16  1  -10  1  794.92  891.12  148.69  o
  16  1  10  2  8.46  41.42  84.73  <
  16  1  -10  2  10.04  -5.65  80.96  <
  17  1  10  -2  23.76  77.20  107.32  <
  17  1  -10  -2  23.78  24.48  84.73  <
  17  1  10  -1  760.65  755.45  175.21  o
  17  1  -10  -1  763.12  698.93  148.91  o
  17  1  10  0  317.51  325.81  177.03  <
  17  1  -10  0  335.55  161.97  131.91  <
  0  2  10  -2  30.84  77.20  28.22  <
  0  2  -10  -2  29.54  35.78  26.36  <
  0  2  10  -1  119.95  139.36  48.95  <
  0  2  -10  -1  106.02  111.11  28.24  o
  0  2  10  0  12866.40  12871.70  356.64  o
  0  2  -10  0  12869.50  12827.70  341.77  o
  0  2  10  1  4122.60  4267.42  165.63  o
  0  2  -10  1  3989.22  3816.14  152.61  o
  0  2  10  2  64.18  105.45  50.82  <
  0  2  -10  2  68.62  33.89  41.44  <
  1  2  10  -2  31.03  50.84  18.82  <
  1  2  -10  -2  31.09  62.14  24.46  <
  1  2  10  -1  790.27  886.02  58.07  o
  1  2  -10  -1  811.34  903.02  48.58  o
  1  2  10  0  10313.50  10015.50  219.59  o
  1  2  -10  0  10495.70  10128.90  187.00  o
  1  2  10  1  450.66  508.68  54.50  o
  1  2  -10  1  465.83  455.94  49.01  o
  1  2  10  2  38.44  11.30  28.25  <
  1  2  -10  2  35.40  -9.41  24.48  <
  2  2  10  -2  17.88  -22.60  20.71  <
  2  2  -10  -2  17.67  -15.06  20.71  <
  2  2  10  -1  198.21  261.80  41.34  o
  2  2  -10  -1  196.39  222.25  33.86  o
  2  2  10  0  2687.31  2394.60  102.09  o
  2  2  -10  0  2687.98  2672.43  85.18  o
  2  2  10  1  241.84  237.32  43.33  o
  2  2  -10  1  244.92  175.16  34.01  o
  2  2  10  2  28.82  33.89  32.01  <
  2  2  -10  2  28.95  18.83  30.13  <
  3  2  10  -2  24.55  0.00  22.60  <
  3  2  -10  -2  24.54  43.31  22.59  <
  3  2  10  -1  1076.21  1054.17  62.33  o
  3  2  -10  -1  1057.10  1061.68  58.44  o
  3  2  10  0  2921.31  2998.11  112.88  o
  3  2  -10  0  2809.96  2795.42  90.84  o
  3  2  10  1  285.65  273.12  45.23  o
  3  2  -10  1  280.35  280.65  37.67  o
  3  2  10  2  54.87  16.95  37.67  <
  3  2  -10  2  50.07  47.08  26.36  <
  4  2  10  -2  94.76  56.49  24.51  <
  4  2  -10  -2  92.32  54.61  26.39  <
  4  2  10  -1  339.67  325.89  35.83  o
  4  2  -10  -1  337.21  405.01  50.73  o
  4  2  10  0  7139.39  7174.11  136.35  o
  4  2  -10  0  7392.58  6714.51  174.63  o
  4  2  10  1  3170.47  3037.57  114.37  o
  4  2  -10  1  3231.86  3092.61  103.21  o
  4  2  10  2  78.67  109.22  45.18  <
  4  2  -10  2  83.16  86.62  35.78  <
  5  2  10  -2  62.75  18.83  20.73  <
  5  2  -10  -2  63.46  84.74  24.46  o
  5  2  10  -1  403.11  376.78  39.63  o
  5  2  -10  -1  379.34  314.60  45.34  o
  5  2  10  0  3673.02  3368.74  114.09  o
  5  2  -10  0  3465.24  3347.07  114.40  o
  5  2  10  1  314.44  389.90  56.38  o
  5  2  -10  1  318.96  380.49  50.74  o
  5  2  10  2  33.20  50.84  37.65  <
  5  2  -10  2  28.82  43.31  39.54  <
  6  2  10  -2  6.68  -16.95  22.59  <
  6  2  -10  -2  7.97  9.41  22.59  <
  6  2  10  -1  136.18  177.02  43.27  o
  6  2  -10  -1  155.74  80.98  32.08  <
  6  2  10  0  134.78  18.83  32.07  <
  6  2  -10  0  69.09  65.91  39.55  <
  6  2  10  1  113.11  146.88  47.05  o
  6  2  -10  1  111.15  105.46  41.43  <
  6  2  10  2  6.55  13.18  37.66  <
  6  2  -10  2  8.39  7.53  35.78  <
  7  2  10  -2  10.99  -18.83  26.36  <
  7  2  -10  -2  14.06  18.83  32.01  <
  7  2  10  -1  399.09  442.68  56.42  o
  7  2  -10  -1  385.71  421.96  56.44  o
  7  2  10  0  6019.85  6111.12  169.73  o
  7  2  -10  0  6203.63  5994.81  176.35  o
  7  2  10  1  318.16  177.05  45.39  o
  7  2  -10  1  280.98  265.57  52.76  o
  7  2  10  2  10.54  -1.88  37.66  <
  7  2  -10  2  12.58  -82.85  30.08  <
  8  2  10  -2  10.79  35.78  33.89  <
  8  2  -10  -2  12.94  32.01  35.77  <
  8  2  10  -1  164.81  152.54  43.33  o
  8  2  -10  -1  153.23  184.55  47.05  o
  8  2  10  0  12458.80  12641.00  268.60  o
  8  2  -10  0  12397.90  12771.90  273.91  o
  8  2  10  1  2410.89  2517.87  108.82  o
  8  2  -10  1  2373.31  2391.32  111.25  o
  8  2  10  2  23.31  22.60  41.42  <
  8  2  -10  2  26.35  24.48  43.31  <
  9  2  10  -2  25.52  20.71  33.89  <
  9  2  -10  -2  24.65  1.88  33.89  <
  9  2  10  -1  328.55  261.81  49.07  o
  9  2  -10  -1  324.07  241.09  50.97  o
  9  2  10  0  3493.29  3667.32  136.71  o
  9  2  -10  0  3396.08  3519.61  137.08  o
  9  2  10  1  182.34  192.09  52.72  o
  9  2  -10  1  221.33  175.15  56.54  o
  9  2  10  2  19.47  22.59  43.31  <
  9  2  -10  2  24.32  0.00  45.19  <
  10  2  10  -2  6.66  -3.77  33.89  <
  10  2  -10  -2  4.74  52.72  41.41  <
  10  2  10  -1  887.24  800.91  75.63  o
  10  2  -10  -1  849.80  838.57  90.48  o
  10  2  10  0  6320.43  6352.47  185.32  o
  10  2  -10  0  6366.34  6114.09  208.46  o
  10  2  10  1  925.39  825.40  90.71  o
  10  2  -10  1  909.74  1066.59  107.02  o
  10  2  10  2  33.54  -35.78  39.54  <
  10  2  -10  2  30.66  3.77  48.96  <
  11  2  10  -2  24.82  18.83  37.66  <
  11  2  -10  -2  23.66  79.08  54.59  <
  11  2  10  -1  158.47  169.48  45.19  o
  11  2  -10  -1  178.51  161.95  58.39  <
  11  2  10  0  3967.26  3661.82  158.77  o
  11  2  -10  0  3831.91  3780.41  166.57  o
  11  2  10  1  164.49  203.38  58.34  o
  11  2  -10  1  166.02  131.82  58.40  <
  11  2  10  2  0.37  20.71  52.72  <
  11  2  -10  2  0.09  -16.95  50.84  <
  12  2  10  -2  45.62  -18.83  33.89  <
  12  2  -10  -2  40.65  -13.18  47.08  <
  12  2  10  -1  183.70  103.57  50.90  <
  12  2  -10  -1  198.73  103.58  58.44  <
  12  2  10  0  2739.37  2740.23  141.54  o
  12  2  -10  0  2813.69  3065.02  164.88  o
  12  2  10  1  2163.93  2301.19  129.51  o
  12  2  -10  1  2084.63  2136.95  146.91  o
  12  2  10  2  37.72  5.65  48.96  <
  12  2  -10  2  37.51  -41.42  50.83  <
  13  2  10  -2  20.00  52.72  54.60  <
  13  2  -10  -2  20.21  3.77  52.72  <
  13  2  10  -1  57.00  24.48  48.96  <
  13  2  -10  -1  49.41  0.00  52.73  <
  13  2  10  0  1464.96  1408.16  124.59  o
  13  2  -10  0  1461.28  1411.93  137.75  o
  13  2  10  1  327.90  380.44  82.81  o
  13  2  -10  1  297.15  346.53  84.70  o
  13  2  10  2  58.88  -28.24  48.96  <
  13  2  -10  2  52.99  71.55  64.02  <
  14  2  10  -2  30.87  0.00  64.02  <
  14  2  -10  -2  34.59  -7.53  67.79  <
  14  2  10  -1  502.53  550.02  95.99  o
  14  2  -10  -1  527.55  574.52  101.65  o
  14  2  10  0  1264.75  1140.25  120.95  o
  14  2  -10  0  1171.02  876.33  119.37  o
  14  2  10  1  339.35  293.81  73.50  o
  14  2  -10  1  341.13  357.84  94.15  o
  14  2  10  2  102.88  -5.65  54.62  <
  14  2  -10  2  115.42  116.75  79.09  <
  15  2  10  -2  17.46  -18.83  67.78  <
  15  2  -10  -2  19.23  -26.36  69.67  <
  15  2  10  -1  235.99  158.19  81.03  <
  15  2  -10  -1  232.91  186.44  92.30  <
  15  2  10  0  1614.49  1819.15  155.85  o
  15  2  -10  0  1781.92  1530.92  189.11  o
  15  2  10  1  56.38  41.43  64.02  <
  15  2  -10  1  37.60  54.61  92.26  <
  15  2  10  2  4.84  56.49  65.89  <
  15  2  -10  2  3.73  16.95  71.55  <
  16  2  10  -2  43.17  -15.06  73.44  <
  16  2  -10  -2  48.21  -54.61  71.54  <
  16  2  10  -1  21.79  20.71  73.43  <
  16  2  -10  -1  13.81  -69.67  75.30  <
  16  2  10  0  508.51  452.06  124.37  o
  16  2  -10  0  528.82  391.79  122.57  o
  16  2  10  1  1530.91  1698.33  163.54  o
  16  2  -10  1  1592.95  1438.27  186.95  o
  0  3  10  -2  71.89  28.25  39.56  <
  0  3  -10  -2  72.75  18.83  35.79  <
  0  3  10  -1  3081.60  3126.57  145.30  o
  0  3  -10  -1  3114.11  3060.54  140.20  o
  0  3  10  0  463.36  512.43  80.93  o
  0  3  -10  0  422.80  593.41  82.59  o
  0  3  10  1  43.53  22.60  48.96  <
  0  3  -10  1  35.98  52.72  47.07  <
  0  3  10  2  181.13  137.48  60.29  <
  0  3  -10  2  177.68  148.77  60.28  <
  1  3  10  -2  26.67  41.42  28.24  <
  1  3  -10  -2  25.94  26.36  24.48  <
  1  3  10  -1  28.11  1.88  30.13  <
  1  3  -10  -1  26.65  -45.19  22.58  <
  1  3  10  0  3479.08  3785.03  122.35  o
  1  3  -10  0  3651.77  3566.44  117.94  o
  1  3  10  1  1374.36  1465.21  80.66  o
  1  3  -10  1  1434.27  1412.50  79.31  o
  1  3  10  2  46.11  62.14  43.30  <
  1  3  -10  2  46.06  56.49  33.89  <
  2  3  10  -2  8.00  28.24  30.12  <
  2  3  -10  -2  8.37  -7.53  22.59  <
  2  3  10  -1  8.09  -13.18  30.13  <
  2  3  -10  -1  6.42  -20.71  26.36  <
  2  3  10  0  7427.00  7239.66  184.31  o
  2  3  -10  0  7409.16  6905.26  178.24  o
  2  3  10  1  17.04  16.95  37.66  <
  2  3  -10  1  17.75  33.89  32.01  <
  2  3  10  2  0.73  -13.18  37.66  <
  2  3  -10  2  0.87  5.65  30.13  <
  3  3  10  -2  29.86  -11.30  28.25  <
  3  3  -10  -2  33.50  32.01  26.36  <
  3  3  10  -1  175.16  152.55  43.34  o
  3  3  -10  -1  198.29  143.13  33.97  o
  3  3  10  0  7628.20  7547.62  221.05  o
  3  3  -10  0  7677.56  8205.21  183.89  o
  3  3  10  1  1568.63  1535.23  100.10  o
  3  3  -10  1  1626.45  1522.12  81.64  o
  3  3  10  2  47.53  107.33  50.81  <
  3  3  -10  2  49.44  90.38  35.75  <
  4  3  10  -2  59.37  15.06  33.90  <
  4  3  -10  -2  61.58  16.95  28.26  <
  4  3  10  -1  2246.90  2424.04  104.66  o
  4  3  -10  -1  2230.29  2427.77  89.23  o
  4  3  10  0  14810.30  15811.20  308.39  o
  4  3  -10  0  14958.10  14988.80  282.84  o
  4  3  10  1  238.15  195.87  52.78  o
  4  3  -10  1  239.28  175.15  50.92  o
  4  3  10  2  153.59  152.54  50.85  o
  4  3  -10  2  163.61  101.69  47.12  <
  5  3  10  -2  27.02  41.42  32.01  <
  5  3  -10  -2  30.11  11.30  30.13  <
  5  3  10  -1  3.79  -1.88  33.89  <
  5  3  -10  -1  2.06  -26.36  33.89  <
  5  3  10  0  3228.40  3312.07  135.49  o
  5  3  -10  0  3199.77  3225.06  133.98  o
  5  3  10  1  1404.42  1461.29  99.71  o
  5  3  -10  1  1402.26  1495.23  101.46  o
  5  3  10  2  124.06  126.17  50.84  <
  5  3  -10  2  129.02  86.62  47.10  <
  6  3  10  -2  11.26  11.30  32.01  <
  6  3  -10  -2  9.05  7.53  32.01  <
  6  3  10  -1  110.47  103.57  43.32  <
  6  3  -10  -1  124.06  90.39  41.45  <
  6  3  10  0  1255.81  1453.57  97.29  o
  6  3  -10  0  1339.10  1248.18  87.09  o
  6  3  10  1  150.65  75.33  45.24  <
  6  3  -10  1  149.07  161.95  52.72  o
  6  3  10  2  5.70  0.00  41.42  <
  6  3  -10  2  5.47  0.00  43.31  <
  7  3  10  -2  52.11  22.60  35.78  <
  7  3  -10  -2  52.17  7.53  37.67  <
  7  3  10  -1  842.41  693.51  79.52  o
  7  3  -10  -1  782.89  819.72  77.16  o
  7  3  10  0  3217.03  3129.79  144.06  o
  7  3  -10  0  3054.70  3306.82  132.46  o
  7  3  10  1  768.24  821.53  94.09  o
  7  3  -10  1  747.95  866.73  82.59  o
  7  3  10  2  35.10  30.13  52.72  <
  7  3  -10  2  40.24  52.72  48.95  <
  8  3  10  -2  23.41  101.68  39.50  <
  8  3  -10  -2  23.88  62.14  43.30  <
  8  3  10  -1  287.14  355.97  63.94  o
  8  3  -10  -1  299.35  242.96  52.81  o
  8  3  10  0  3407.30  3547.36  154.04  o
  8  3  -10  0  3534.99  3950.16  161.77  o
  8  3  10  1  503.84  521.79  84.74  o
  8  3  -10  1  506.17  582.08  86.52  o
  8  3  10  2  117.05  128.05  58.37  <
  8  3  -10  2  113.84  156.29  60.23  <
  9  3  10  -2  6.98  -1.88  33.89  <
  9  3  -10  -2  5.56  -5.65  43.31  <
  9  3  10  -1  602.91  518.09  68.00  o
  9  3  -10  -1  581.04  642.41  84.66  o
  9  3  10  0  2464.02  2100.28  131.85  o
  9  3  -10  0  2347.51  2307.61  132.27  o
  9  3  10  1  889.73  1177.70  116.11  o
  9  3  -10  1  841.55  936.47  105.30  o
  9  3  10  2  48.39  79.08  58.36  <
  9  3  -10  2  46.50  58.37  54.60  <
  10  3  10  -2  13.69  18.83  37.66  <
  10  3  -10  -2  12.44  -11.30  41.42  <
  10  3  10  -1  660.29  501.14  77.55  o
  10  3  -10  -1  664.19  589.69  81.16  o
  10  3  10  0  12230.80  11875.90  338.23  o
  10  3  -10  0  12136.10  12451.30  324.03  o
  10  3  10  1  4.75  32.01  56.48  <
  10  3  -10  1  12.83  16.95  50.84  <
  10  3  10  2  28.79  35.78  58.37  <
  10  3  -10  2  31.91  -1.88  50.84  <
  11  3  10  -2  91.15  3.77  45.21  <
  11  3  -10  -2  98.28  35.78  48.98  <
  11  3  10  -1  1114.90  1012.06  103.93  o
  11  3  -10  -1  1100.84  1202.40  118.46  o
  11  3  10  0  2424.27  2697.88  155.37  o
  11  3  -10  0  2514.51  2547.13  150.79  o
  11  3  10  1  1120.71  947.93  115.36  o
  11  3  -10  1  1112.26  1083.62  116.91  o
  11  3  10  2  41.54  67.79  64.01  <
  11  3  -10  2  43.62  24.48  56.49  <
  12  3  10  -2  22.42  16.95  47.07  <
  12  3  -10  -2  19.58  41.42  56.48  <
  12  3  10  -1  1468.93  1566.53  125.99  o
  12  3  -10  -1  1486.55  1755.07  132.95  o
  12  3  10  0  677.35  693.27  99.82  o
  12  3  -10  0  665.20  668.78  103.61  o
  12  3  10  1  78.41  112.98  67.77  <
  12  3  -10  1  74.33  143.11  69.64  <
  12  3  10  2  96.32  80.97  67.79  <
  12  3  -10  2  101.14  79.09  69.68  <
  13  3  10  -2  11.71  41.42  52.72  <
  13  3  -10  -2  10.48  82.85  65.88  <
  13  3  10  -1  309.29  329.58  73.43  o
  13  3  -10  -1  343.98  299.46  82.91  o
  13  3  10  0  1773.47  1710.08  141.61  o
  13  3  -10  0  1774.16  1730.82  167.92  o
  13  3  10  1  604.94  612.21  107.36  o
  13  3  -10  1  611.16  617.87  113.01  o
  13  3  10  2  83.48  90.38  73.43  <
  13  3  -10  2  81.83  128.04  77.18  <
  14  3  10  -2  27.52  11.30  56.49  <
  14  3  -10  -2  30.46  18.83  62.14  <
  14  3  10  -1  142.44  86.62  65.93  <
  14  3  -10  -1  157.57  161.95  79.09  <
  14  3  10  0  3526.31  3943.54  226.56  o
  14  3  -10  0  3580.54  3418.88  208.38  o
  14  3  10  1  581.72  706.38  112.82  o
  14  3  -10  1  584.37  519.90  105.57  o
  14  3  10  2  28.92  13.18  73.44  <
  14  3  -10  2  34.64  -64.02  69.66  <
  15  3  10  -2  25.89  -28.24  58.37  <
  15  3  -10  -2  23.91  -47.07  80.96  <
  15  3  10  -1  554.49  544.37  97.96  o
  15  3  -10  -1  619.05  553.82  116.88  o
  15  3  10  0  2807.18  2779.06  181.24  o
  15  3  -10  0  2762.02  3009.14  204.70  o
  16  3  10  -2  5.82  71.55  82.84  <
  16  3  -10  -2  7.72  45.19  92.26  <
  0  4  10  -2  33.88  -18.83  45.19  <
  0  4  -10  -2  28.03  24.48  39.54  <
  0  4  10  -1  1862.73  2028.08  133.30  o
  0  4  -10  -1  1808.56  1916.66  125.96  o
  0  4  10  0  2755.36  2731.92  205.87  o
  0  4  -10  0  2860.44  2458.41  154.75  o
  0  4  10  1  769.69  823.40  141.24  o
  0  4  -10  1  689.43  433.34  88.95  o
  0  4  10  2  80.51  79.09  84.74  <
  0  4  -10  2  75.13  3.77  52.73  <
  1  4  10  -2  81.38  75.32  37.66  <
  1  4  -10  -2  81.33  103.57  35.76  <
  1  4  10  -1  1933.35  1860.30  102.24  o
  1  4  -10  -1  1914.57  1973.46  90.22  o
  1  4  10  0  5162.00  5380.12  181.87  o
  1  4  -10  0  5621.01  5303.01  161.89  o
  1  4  10  1  212.20  195.86  62.16  o
  1  4  -10  1  251.53  256.13  52.73  o
  1  4  10  2  201.02  203.39  65.91  o
  1  4  -10  2  199.34  195.85  52.73  o
  2  4  10  -2  3.04  35.78  39.54  <
  2  4  -10  -2  2.69  11.30  30.13  <
  2  4  10  -1  40.39  -3.77  39.55  <
  2  4  -10  -1  35.52  43.31  33.89  <
  2  4  10  0  101.94  62.14  47.09  <
  2  4  -10  0  98.59  94.15  37.66  <
  2  4  10  1  124.50  133.70  54.60  <
  2  4  -10  1  128.87  131.82  45.19  <
  2  4  10  2  8.86  35.78  50.83  <
  2  4  -10  2  8.96  -22.59  39.54  <
  3  4  10  -2  37.16  33.89  43.31  <
  3  4  -10  -2  36.21  39.54  32.01  <
  3  4  10  -1  2883.87  2876.08  132.24  o
  3  4  -10  -1  2832.17  2670.10  103.12  o
  3  4  10  0  6656.42  6330.74  212.97  o
  3  4  -10  0  5937.01  6491.15  196.02  o
  3  4  10  1  374.67  555.64  84.48  o
  3  4  -10  1  367.65  352.22  65.95  o
  3  4  10  2  179.21  128.06  54.65  <
  3  4  -10  2  165.91  90.39  50.89  <
  4  4  10  -2  63.84  28.25  37.67  <
  4  4  -10  -2  67.28  73.44  43.31  <
  4  4  10  -1  1728.04  1646.59  100.33  o
  4  4  -10  -1  1670.41  1925.63  110.14  o
  4  4  10  0  446.19  636.68  80.64  o
  4  4  -10  0  591.60  574.60  84.81  o
  4  4  10  1  226.59  318.27  67.69  o
  4  4  -10  1  250.86  139.36  52.83  <
  4  4  10  2  75.84  156.29  63.98  <
  4  4  -10  2  83.95  77.20  52.73  <
  5  4  10  -2  59.45  37.66  39.55  <
  5  4  -10  -2  56.01  80.97  43.30  <
  5  4  10  -1  1590.70  1746.24  103.04  o
  5  4  -10  -1  1657.59  1471.01  102.58  o
  5  4  10  0  3068.51  3066.38  139.74  o
  5  4  -10  0  3113.86  3006.08  149.76  o
  5  4  10  1  402.12  414.38  77.21  o
  5  4  -10  1  376.66  455.81  78.99  o
  5  4  10  2  192.29  192.09  64.03  <
  5  4  -10  2  186.33  246.70  67.74  o
  6  4  10  -2  26.40  -32.01  35.77  <
  6  4  -10  -2  28.97  -13.18  39.54  <
  6  4  10  -1  70.83  -62.14  35.76  <
  6  4  -10  -1  89.17  39.54  45.21  <
  6  4  10  0  117.10  26.36  48.99  <
  6  4  -10  0  84.35  80.97  54.61  <
  6  4  10  1  82.48  80.97  58.37  <
  6  4  -10  1  78.42  131.81  67.76  <
  6  4  10  2  8.14  -30.13  52.72  <
  6  4  -10  2  8.36  11.30  56.49  <
  7  4  10  -2  84.40  73.44  47.08  <
  7  4  -10  -2  87.21  94.15  43.31  <
  7  4  10  -1  1257.21  1183.80  115.19  o
  7  4  -10  -1  1285.27  1410.04  112.70  o
  7  4  10  0  5188.10  6025.65  223.17  o
  7  4  -10  0  5948.83  5011.40  212.64  o
  7  4  10  1  242.85  261.77  77.20  o
  7  4  -10  1  263.10  242.95  73.47  o
  7  4  10  2  119.56  173.24  77.18  <
  7  4  -10  2  120.01  205.25  73.38  <
  8  4  10  -2  31.60  52.72  48.95  <
  8  4  -10  -2  33.11  20.71  43.31  <
  8  4  10  -1  1469.82  1453.56  126.36  o
  8  4  -10  -1  1440.37  1487.46  109.18  o
  8  4  10  0  1826.27  2157.30  143.95  o
  8  4  -10  0  1842.27  2200.70  136.21  o
  8  4  10  1  480.42  246.75  77.49  o
  8  4  -10  1  483.39  542.48  94.09  o
  8  4  10  2  29.46  -9.41  60.25  <
  8  4  -10  2  28.36  65.90  65.89  <
  9  4  10  -2  31.17  35.78  48.96  <
  9  4  -10  -2  30.63  33.89  48.96  <
  9  4  10  -1  705.66  717.80  97.94  o
  9  4  -10  -1  675.21  747.93  92.16  o
  9  4  10  0  5806.99  6424.22  245.57  o
  9  4  -10  0  5678.43  5772.88  216.86  o
  9  4  10  1  355.83  371.03  88.50  o
  9  4  -10  1  388.81  386.11  90.41  o
  9  4  10  2  152.34  201.49  82.83  <
  9  4  -10  2  159.87  73.44  67.83  <
  10  4  10  -2  3.77  -35.78  50.83  <
  10  4  -10  -2  2.25  -13.18  48.95  <
  10  4  10  -1  610.74  504.86  94.35  o
  10  4  -10  -1  580.72  640.48  94.08  o
  10  4  10  0  1096.07  1142.01  129.92  o
  10  4  -10  0  1151.60  1192.94  124.28  o
  10  4  10  1  394.96  489.70  97.82  o
  10  4  -10  1  391.23  295.70  84.85  o
  10  4  10  2  59.81  -22.60  62.14  <
  10  4  -10  2  59.86  -28.24  65.90  <
  11  4  10  -2  41.79  50.84  54.60  <
  11  4  -10  -2  37.19  69.67  58.36  <
  11  4  10  -1  1055.58  1324.76  136.92  o
  11  4  -10  -1  1049.63  1513.20  134.43  o
  11  4  10  0  4664.07  3877.34  208.28  o
  11  4  -10  0  4153.84  4805.14  203.90  o
  11  4  10  1  652.46  425.74  100.14  o
  11  4  -10  1  609.55  702.63  109.10  o
  11  4  10  2  75.31  20.71  73.44  <
  11  4  -10  2  73.31  0.00  71.56  <
  12  4  10  -2  51.02  26.36  56.49  <
  12  4  -10  -2  46.22  43.31  60.26  <
  12  4  10  -1  725.36  838.34  114.71  o
  12  4  -10  -1  737.49  687.64  109.35  o
  12  4  10  0  265.37  273.07  92.27  <
  12  4  -10  0  317.02  195.87  82.96  <
  12  4  10  1  286.32  267.42  92.30  <
  12  4  -10  1  239.53  186.44  82.90  <
  13  4  10  -2  87.90  45.19  58.38  <
  13  4  -10  -2  86.31  235.38  84.65  <
  13  4  10  -1  466.26  397.42  96.14  o
  13  4  -10  -1  486.64  352.23  88.69  o
  13  4  10  0  558.04  555.67  113.02  o
  13  4  -10  0  600.60  565.11  116.84  o
  14  4  10  -2  19.83  3.77  62.14  <
  14  4  -10  -2  18.34  -58.37  71.54  <
  14  4  10  -1  197.72  150.65  82.88  <
  14  4  -10  -1  200.34  133.70  90.42  <
  0  5  10  -2  82.19  60.26  73.44  <
  0  5  -10  -2  94.73  26.36  50.86  <
  0  5  10  -1  1023.81  889.53  149.11  o
  0  5  -10  -1  1057.89  1087.44  120.55  o
  0  5  10  0  2796.32  2540.29  219.74  o
  0  5  -10  0  2634.96  2632.41  173.62  o
  0  5  10  1  128.39  101.69  94.16  <
  0  5  -10  1  103.58  48.96  64.04  <
  0  5  10  2  79.88  5.65  96.04  <
  0  5  -10  2  73.39  30.13  71.56  <
  1  5  10  -2  148.79  64.03  47.12  <
  1  5  -10  -2  149.83  75.33  35.84  <
  1  5  10  -1  1197.73  961.29  109.92  o
  1  5  -10  -1  1169.11  1132.78  92.48  o
  1  5  10  0  1820.25  1978.15  137.07  o
  1  5  -10  0  1948.49  2023.62  112.80  o
  1  5  10  1  1628.87  1544.07  143.53  o
  1  5  -10  1  1703.62  1542.28  123.11  o
  1  5  10  2  28.86  45.19  80.96  <
  1  5  -10  2  31.27  99.80  62.11  <
  2  5  10  -2  8.68  22.59  43.31  <
  2  5  -10  -2  8.54  80.96  41.40  <
  2  5  10  -1  29.47  22.60  48.96  <
  2  5  -10  -1  31.39  43.31  47.07  <
  2  5  10  0  1226.19  1178.00  122.64  o
  2  5  -10  0  1238.11  1115.81  109.66  o
  2  5  10  1  9.38  -60.25  65.89  <
  2  5  -10  1  9.24  9.41  50.84  <
  2  5  10  2  2.91  -43.31  60.25  <
  2  5  -10  2  2.54  -26.36  48.95  <
  3  5  10  -2  56.04  33.89  47.08  <
  3  5  -10  -2  64.36  16.95  41.44  <
  3  5  10  -1  1603.98  1653.59  109.16  o
  3  5  -10  -1  1574.70  1529.11  105.76  o
  3  5  10  0  3174.28  3333.84  180.46  o
  3  5  -10  0  3134.47  3447.00  166.34  o
  3  5  10  1  1758.60  1774.23  158.33  o
  3  5  -10  1  1824.88  1542.40  127.31  o
  3  5  10  2  101.62  35.78  69.69  <
  3  5  -10  2  103.50  109.22  62.14  <
  4  5  10  -2  56.68  77.20  48.95  <
  4  5  -10  -2  64.06  77.20  47.07  <
  4  5  10  -1  1250.40  1234.61  118.79  o
  4  5  -10  -1  1193.21  1108.27  115.20  o
  4  5  10  0  393.61  553.74  90.17  o
  4  5  -10  0  497.93  480.33  82.91  o
  4  5  10  1  338.80  299.46  88.56  o
  4  5  -10  1  342.09  299.46  77.26  o
  4  5  10  2  54.40  9.41  65.91  <
  4  5  -10  2  55.54  69.67  77.20  <
  5  5  10  -2  48.05  56.49  52.72  <
  5  5  -10  -2  52.88  105.45  50.82  <
  5  5  10  -1  845.44  740.50  98.20  o
  5  5  -10  -1  871.71  827.19  99.97  o
  5  5  10  0  2267.77  2316.37  148.82  o
  5  5  -10  0  2159.80  2155.85  165.99  o
  5  5  10  1  1992.11  2012.10  143.24  o
  5  5  -10  1  1927.69  1778.18  168.26  o
  5  5  10  2  62.88  90.38  77.19  <
  5  5  -10  2  62.99  3.77  75.32  <
  6  5  10  -2  3.75  -3.77  48.96  <
  6  5  -10  -2  4.17  -64.02  41.41  <
  6  5  10  -1  53.23  -15.06  48.96  <
  6  5  -10  -1  45.01  15.06  54.61  <
  6  5  10  0  208.32  263.65  80.93  o
  6  5  -10  0  227.48  109.23  67.87  <
  6  5  10  1  0.64  -43.31  60.25  <
  6  5  -10  1  1.03  -11.30  62.13  <
  6  5  10  2  10.60  -22.59  67.78  <
  6  5  -10  2  11.25  -37.66  64.01  <
  7  5  10  -2  126.35  58.38  60.28  <
  7  5  -10  -2  129.74  35.78  54.64  <
  7  5  10  -1  1574.01  1653.37  141.15  o
  7  5  -10  -1  1555.44  1451.63  130.40  o
  7  5  10  0  1857.65  1821.46  164.15  o
  7  5  -10  0  1889.45  1934.65  148.81  o
  7  5  10  1  1295.05  1034.70  134.39  o
  7  5  -10  1  1242.49  1115.70  134.10  o
  7  5  10  2  46.59  69.67  80.96  <
  7  5  -10  2  50.05  47.07  67.79  <
  8  5  10  -2  36.81  22.60  58.37  <
  8  5  -10  -2  38.02  -37.66  50.83  <
  8  5  10  -1  204.41  305.08  82.77  o
  8  5  -10  -1  243.19  109.23  69.76  <
  8  5  10  0  346.67  295.69  86.68  o
  8  5  -10  0  315.23  408.68  92.18  o
  8  5  10  1  126.52  18.83  75.34  <
  8  5  -10  1  82.27  152.52  77.17  <
  8  5  10  2  33.59  35.78  79.08  <
  8  5  -10  2  30.70  3.77  69.67  <
  9  5  10  -2  55.46  43.31  62.14  <
  9  5  -10  -2  53.43  5.65  56.49  <
  9  5  10  -1  975.72  1104.19  135.40  o
  9  5  -10  -1  953.72  949.66  124.37  o
  9  5  10  0  1036.56  1030.73  139.45  o
  9  5  -10  0  1048.97  955.36  130.21  o
  9  5  10  1  1068.31  987.39  137.71  o
  9  5  -10  1  1076.43  993.05  135.84  o
  10  5  10  -2  1.37  22.59  65.90  <
  10  5  -10  -2  1.34  -3.77  56.49  <
  10  5  10  -1  573.86  442.67  101.89  o
  10  5  -10  -1  611.14  506.73  103.75  o
  10  5  10  0  3881.35  3772.58  215.76  o
  10  5  -10  0  3831.14  4187.83  217.25  o
  11  5  10  -2  9.08  80.96  71.53  <
  11  5  -10  -2  12.73  48.96  64.01  <
  11  5  10  -1  1474.10  1711.49  169.03  o
  11  5  -10  -1  1488.83  1458.93  154.64  o
  11  5  10  0  1328.56  1223.15  156.65  o
  11  5  -10  0  1337.14  1568.05  159.62  o
  12  5  10  -2  34.63  71.55  71.54  <
  12  5  -10  -2  39.28  1.88  67.79  <
  12  5  10  -1  897.43  925.09  141.26  o
  12  5  -10  -1  860.24  810.14  124.44  o
  13  5  10  -2  4.20  26.36  73.43  <
  13  5  -10  -2  3.77  -41.42  77.19  <
  0  6  10  -2  67.21  3.77  75.33  <
  0  6  -10  -2  62.32  5.65  60.26  <
  0  6  10  -1  842.48  478.57  137.96  o
  0  6  -10  -1  784.35  900.57  133.57  o
  0  6  10  0  269.89  67.80  162.01  <
  0  6  -10  0  290.90  158.20  118.71  <
  0  6  10  1  724.34  540.67  237.49  <
  0  6  -10  1  779.49  612.28  158.44  o
  1  6  10  -2  2.43  11.30  58.37  <
  1  6  -10  -2  1.71  18.83  43.31  <
  1  6  10  -1  2310.36  2303.10  164.13  o
  1  6  -10  -1  2272.18  2350.19  137.34  o
  1  6  10  0  2110.23  2110.25  199.90  o
  1  6  -10  0  2227.29  2291.48  146.84  o
  1  6  10  1  130.42  71.56  97.93  <
  1  6  -10  1  154.28  69.67  77.24  <
  2  6  10  -2  2.11  -30.13  50.83  <
  2  6  -10  -2  2.71  9.41  48.95  <
  2  6  10  -1  1.05  -16.95  62.13  <
  2  6  -10  -1  0.52  -15.06  52.72  <
  2  6  10  0  404.60  438.84  99.78  o
  2  6  -10  0  413.32  455.80  90.35  o
  2  6  10  1  15.77  -30.13  71.55  <
  2  6  -10  1  19.82  -24.48  65.90  <
  3  6  10  -2  19.51  -7.53  56.49  <
  3  6  -10  -2  16.84  -5.65  50.84  <
  3  6  10  -1  1980.92  2089.39  165.59  o
  3  6  -10  -1  1960.80  1849.87  136.18  o
  3  6  10  0  378.53  48.97  75.52  <
  3  6  -10  0  227.41  357.81  88.39  o
  3  6  10  1  216.24  135.59  88.55  <
  3  6  -10  1  229.60  39.55  86.69  <
  4  6  10  -2  16.93  5.65  54.60  <
  4  6  -10  -2  18.33  -62.14  45.17  <
  4  6  10  -1  573.95  608.44  109.21  o
  4  6  -10  -1  500.09  499.15  105.48  o
  4  6  10  0  36.25  90.38  84.72  <
  4  6  -10  0  75.79  90.38  79.08  <
  5  6  10  -2  19.86  1.88  56.49  <
  5  6  -10  -2  22.74  -39.54  60.25  <
  5  6  10  -1  1924.04  2051.53  148.50  o
  5  6  -10  -1  1983.43  1878.14  170.03  o
  5  6  10  0  77.24  -18.83  73.44  <
  5  6  -10  0  29.71  7.53  77.20  <
  6  6  10  -2  27.83  3.77  60.25  <
  6  6  -10  -2  30.58  11.30  64.02  <
  6  6  10  -1  96.12  -13.18  71.56  <
  6  6  -10  -1  111.35  32.01  62.16  <
  6  6  10  0  589.30  523.66  130.05  o
  6  6  -10  0  540.37  431.35  101.85  o
  7  6  10  -2  34.00  -5.65  62.14  <
  7  6  -10  -2  36.60  3.77  62.14  <
  7  6  10  -1  1874.08  2273.86  170.24  o
  7  6  -10  -1  1909.75  2004.29  159.96  o
  8  6  10  -2  3.09  -28.24  62.13  <
  8  6  -10  -2  4.08  -18.83  65.90  <
  8  6  10  -1  573.52  348.48  103.85  o
  8  6  -10  -1  507.70  504.80  107.37  o
  9  6  10  -2  38.14  75.32  75.31  <
  9  6  -10  -2  43.78  0.00  65.91  <
  10  6  10  -2  19.77  13.18  73.43  <
  10  6  -10  -2  18.18  45.19  75.31  <
  0  7  10  -2  227.19  212.80  188.32  <
  0  7  -10  -2  245.80  35.78  101.75  <
  1  7  10  -2  238.52  129.94  97.98  <
  1  7  -10  -2  244.28  96.04  73.52  <
  2  7  10  -2  13.61  18.83  65.90  <
  2  7  -10  -2  12.98  16.95  67.78  <
  3  7  10  -2  128.75  163.83  82.84  <
  3  7  -10  -2  136.52  141.23  88.50  <
  4  7  10  -2  166.54  96.04  86.65  <
  4  7  -10  -2  173.16  50.84  79.13  <
  5  7  10  -2  109.86  24.48  79.10  <
  5  7  -10  -2  114.88  105.45  73.44  <
  1  0  11  1  991.65  986.30  47.18  o
  1  0  -11  1  993.07  1010.82  45.16  o
  1  0  11  2  36.90  -18.83  16.95  <
  1  0  -11  2  36.39  7.53  18.84  <
  2  0  11  0  4258.60  3963.32  136.93  o
  2  0  -11  0  4237.31  4162.20  131.42  o
  2  0  11  1  22.99  11.30  20.71  <
  2  0  -11  1  32.65  7.53  18.84  <
  2  0  11  2  92.11  1.88  18.87  <
  2  0  -11  2  86.70  88.51  30.13  <
  3  0  11  1  479.58  499.32  35.73  o
  3  0  -11  1  482.05  416.42  41.64  o
  3  0  11  2  36.20  9.41  24.48  <
  3  0  -11  2  34.33  71.55  26.34  <
  4  0  11  0  199.34  220.36  41.41  o
  4  0  -11  0  241.28  152.57  41.54  o
  4  0  11  1  10.01  -22.59  18.82  <
  4  0  -11  1  10.02  -33.89  22.58  <
  4  0  11  2  0.05  -13.18  20.71  <
  4  0  -11  2  0.20  3.77  24.48  <
  5  0  11  1  390.59  423.87  45.13  o
  5  0  -11  1  372.52  333.44  37.77  o
  5  0  11  2  17.33  -18.83  24.48  <
  5  0  -11  2  18.66  -3.77  20.71  <
  6  0  11  0  1088.14  1119.99  77.18  o
  6  0  -11  0  1088.61  1021.94  79.43  o
  6  0  11  1  242.26  209.07  37.72  o
  6  0  -11  1  241.35  293.82  37.57  o
  6  0  11  2  37.88  41.43  30.13  <
  6  0  -11  2  41.44  9.41  22.60  <
  7  0  11  1  484.86  480.41  52.76  o
  7  0  -11  1  475.74  491.71  45.17  o
  7  0  11  2  57.48  52.72  30.13  <
  7  0  -11  2  60.21  5.65  24.49  <
  8  0  11  0  11116.60  10789.50  334.55  o
  8  0  -11  0  11198.90  10300.50  268.89  o
  8  0  11  1  394.14  408.77  48.94  o
  8  0  -11  1  380.82  342.83  47.17  o
  8  0  11  2  34.52  18.83  32.01  <
  8  0  -11  2  32.17  -28.24  26.36  <
  9  0  11  1  636.04  569.01  67.98  o
  9  0  -11  1  672.69  680.20  71.58  o
  9  0  11  2  26.86  26.36  33.89  <
  9  0  -11  2  24.73  -5.65  30.13  <
  10  0  11  0  252.68  188.34  73.50  <
  10  0  -11  0  254.81  256.14  77.22  o
  10  0  11  1  916.61  887.63  83.00  o
  10  0  -11  1  919.21  1153.36  89.71  o
  10  0  11  2  35.48  -16.95  32.01  <
  10  0  -11  2  30.39  20.71  39.54  <
  11  0  11  1  408.35  408.74  71.58  o
  11  0  -11  1  430.45  359.77  62.28  o
  11  0  11  2  18.54  11.30  39.54  <
  11  0  -11  2  17.93  16.95  41.42  <
  12  0  11  0  8361.87  8633.10  370.06  o
  12  0  -11  0  8278.61  8283.54  320.46  o
  12  0  11  1  143.77  128.05  52.74  <
  12  0  -11  1  166.79  148.77  58.39  <
  12  0  11  2  6.49  -37.66  43.30  <
  12  0  -11  2  9.44  -3.77  47.07  <
  13  0  11  1  463.76  322.10  71.77  o
  13  0  -11  1  473.50  438.88  90.46  o
  13  0  11  2  8.28  -30.13  47.07  <
  13  0  -11  2  9.19  7.53  54.60  <
  14  0  11  0  1773.69  1485.78  187.32  o
  14  0  -11  0  1787.31  1646.07  200.18  o
  14  0  11  1  400.54  491.59  86.51  o
  14  0  -11  1  396.86  387.99  103.60  o
  14  0  11  2  18.30  0.00  60.25  <
  14  0  -11  2  19.13  -5.65  67.79  <
  15  0  11  1  84.02  75.32  73.44  <
  15  0  -11  1  89.23  47.08  79.10  <
  15  0  11  2  19.22  16.95  64.02  <
  15  0  -11  2  18.36  -16.95  73.43  <
  16  0  11  0  10450.80  9683.26  695.41  o
  16  0  -11  0  10685.20  11360.40  529.43  o
  16  0  11  1  151.99  225.97  99.76  <
  16  0  -11  1  135.83  150.65  94.15  <
  16  0  11  2  11.23  -1.88  73.43  <
  16  0  -11  2  11.10  26.36  84.73  <
  1  1  11  -2  10.39  -16.95  18.83  <
  1  1  -11  -2  9.58  7.53  18.83  <
  1  1  11  -1  55.10  43.31  20.72  <
  1  1  -11  -1  44.92  73.44  20.69  o
  1  1  11  0  441.62  486.11  37.53  o
  1  1  -11  0  464.04  367.42  36.09  o
  1  1  11  1  274.31  293.85  41.40  o
  1  1  -11  1  295.50  250.53  37.76  o
  1  1  11  2  11.94  28.24  30.12  <
  1  1  -11  2  12.31  -33.89  24.47  <
  2  1  11  -2  15.43  16.95  20.71  <
  2  1  -11  -2  17.03  0.00  18.83  <
  2  1  11  -1  499.81  516.31  39.51  o
  2  1  -11  -1  525.36  550.25  39.48  o
  2  1  11  0  46493.90  44239.20  637.81  o
  2  1  -11  0  46536.30  44308.20  658.08  o
  2  1  11  1  3603.65  3408.47  102.09  o
  2  1  -11  1  3604.94  3542.85  99.01  o
  2  1  11  2  75.49  33.90  33.91  <
  2  1  -11  2  72.68  67.79  30.13  <
  3  1  11  -2  22.25  -7.53  16.95  <
  3  1  -11  -2  23.82  9.41  24.48  <
  3  1  11  -1  15.21  37.66  26.35  <
  3  1  -11  -1  13.69  47.07  26.35  <
  3  1  11  0  148.06  133.71  33.91  o
  3  1  -11  0  132.46  195.86  35.70  o
  3  1  11  1  251.24  254.28  39.55  o
  3  1  -11  1  247.09  256.16  41.42  o
  3  1  11  2  55.95  30.13  32.02  <
  3  1  -11  2  58.73  24.48  26.37  <
  4  1  11  -2  2.68  -5.65  18.83  <
  4  1  -11  -2  1.95  -11.30  20.71  <
  4  1  11  -1  57.39  3.77  20.73  <
  4  1  -11  -1  57.23  41.43  28.25  <
  4  1  11  0  2052.20  1937.29  68.86  o
  4  1  -11  0  2023.92  2007.08  77.53  o
  4  1  11  1  316.75  301.39  37.71  o
  4  1  -11  1  315.64  299.50  49.00  o
  4  1  11  2  10.99  -1.88  22.60  <
  4  1  -11  2  8.91  -16.95  28.24  <
  5  1  11  -2  2.61  1.88  24.48  <
  5  1  -11  -2  2.88  -9.41  20.71  <
  5  1  11  -1  95.83  52.73  28.27  <
  5  1  -11  -1  101.54  56.49  24.52  <
  5  1  11  0  248.85  269.34  35.75  o
  5  1  -11  0  319.02  203.44  36.00  o
  5  1  11  1  155.19  163.84  30.12  o
  5  1  -11  1  139.60  124.29  35.80  o
  5  1  11  2  6.65  -20.71  26.36  <
  5  1  -11  2  6.91  1.88  30.13  <
  6  1  11  -2  10.48  20.71  26.36  <
  6  1  -11  -2  9.75  -22.59  20.71  <
  6  1  11  -1  225.02  271.21  41.36  o
  6  1  -11  -1  229.08  224.13  33.91  o
  6  1  11  0  55525.20  54399.80  732.86  o
  6  1  -11  0  55337.50  53567.50  733.57  o
  6  1  11  1  2238.92  2212.64  94.56  o
  6  1  -11  1  2234.04  2276.81  84.65  o
  6  1  11  2  22.93  28.24  33.89  <
  6  1  -11  2  20.05  -22.60  33.89  <
  7  1  11  -2  57.97  9.42  24.49  <
  7  1  -11  -2  54.53  37.66  26.37  <
  7  1  11  -1  38.87  -1.88  26.37  <
  7  1  -11  -1  40.84  0.00  24.48  <
  7  1  11  0  60.49  65.91  37.66  <
  7  1  -11  0  60.63  77.20  39.54  <
  7  1  11  1  99.72  131.82  41.40  o
  7  1  -11  1  97.33  175.13  47.01  o
  7  1  11  2  27.46  1.88  32.01  <
  7  1  -11  2  26.83  -16.95  33.89  <
  8  1  11  -2  104.05  92.27  37.67  <
  8  1  -11  -2  104.76  96.04  35.79  <
  8  1  11  -1  874.38  814.19  64.29  o
  8  1  -11  -1  863.45  823.61  66.10  o
  8  1  11  0  512.64  565.18  62.05  o
  8  1  -11  0  533.67  693.30  73.10  o
  8  1  11  1  999.21  1057.42  78.96  o
  8  1  -11  1  997.88  876.47  73.91  o
  8  1  11  2  30.68  47.07  37.65  <
  8  1  -11  2  29.09  -13.18  33.89  <
  9  1  11  -2  5.90  11.30  32.01  <
  9  1  -11  -2  4.72  45.19  37.65  <
  9  1  11  -1  369.87  356.00  54.65  o
  9  1  -11  -1  338.61  342.81  48.96  o
  9  1  11  0  295.04  256.15  50.91  o
  9  1  -11  0  249.35  269.32  50.82  o
  9  1  11  1  621.82  578.41  66.05  o
  9  1  -11  1  632.91  574.64  67.96  o
  9  1  11  2  51.67  56.49  39.54  <
  9  1  -11  2  49.25  64.02  45.19  <
  10  1  11  -2  10.89  5.65  35.78  <
  10  1  -11  -2  11.82  -54.60  35.76  <
  10  1  11  -1  158.24  154.42  48.97  o
  10  1  -11  -1  169.53  207.15  50.81  o
  10  1  11  0  9544.27  9318.13  230.48  o
  10  1  -11  0  9450.11  9328.69  250.11  o
  10  1  11  1  1087.24  1227.01  89.98  o
  10  1  -11  1  1096.27  1027.23  88.80  o
  10  1  11  2  23.04  -15.06  41.42  <
  10  1  -11  2  20.86  -20.71  41.42  <
  11  1  11  -2  23.14  15.06  41.43  <
  11  1  -11  -2  27.12  -22.60  33.89  <
  11  1  11  -1  141.48  109.22  47.10  <
  11  1  -11  -1  117.14  184.54  48.90  o
  11  1  11  0  393.13  301.37  56.65  o
  11  1  -11  0  403.83  459.59  79.03  o
  11  1  11  1  83.97  73.44  43.31  <
  11  1  -11  1  78.53  15.06  47.09  <
  11  1  11  2  51.79  16.95  43.31  <
  11  1  -11  2  58.14  30.13  47.08  <
  12  1  11  -2  30.99  5.65  45.19  <
  12  1  -11  -2  24.58  52.72  48.95  <
  12  1  11  -1  645.81  762.99  92.07  o
  12  1  -11  -1  646.56  802.56  103.32  o
  12  1  11  0  196.90  158.19  54.65  <
  12  1  -11  0  184.57  186.43  60.26  o
  12  1  11  1  28.47  37.66  43.31  <
  12  1  -11  1  26.09  32.01  52.72  <
  12  1  11  2  42.19  -18.83  45.19  <
  12  1  -11  2  38.49  33.89  54.61  <
  13  1  11  -2  62.98  39.54  48.96  <
  13  1  -11  -2  65.61  -35.78  50.84  <
  13  1  11  -1  265.60  284.38  69.66  o
  13  1  -11  -1  266.58  241.06  73.47  o
  13  1  11  0  346.47  273.10  69.77  o
  13  1  -11  0  378.39  335.26  79.16  o
  13  1  11  1  63.54  48.96  56.49  <
  13  1  -11  1  64.59  75.32  58.37  <
  13  1  11  2  24.87  -47.07  45.18  <
  13  1  -11  2  24.23  28.24  65.90  <
  14  1  11  -2  0.20  7.53  54.60  <
  14  1  -11  -2  0.39  -11.30  58.37  <
  14  1  11  -1  40.51  -3.77  48.96  <
  14  1  -11  -1  33.26  96.03  79.07  <
  14  1  11  0  25829.20  26910.50  654.84  o
  14  1  -11  0  25817.30  25057.00  687.37  o
  14  1  11  1  573.80  568.88  113.03  o
  14  1  -11  1  584.48  636.70  128.03  o
  14  1  11  2  47.43  7.53  67.79  <
  14  1  -11  2  46.96  -3.77  62.14  <
  15  1  11  -2  30.99  15.06  58.37  <
  15  1  -11  -2  29.41  39.54  75.32  <
  15  1  11  -1  413.82  435.08  105.45  o
  15  1  -11  -1  412.62  472.75  116.71  o
  15  1  11  0  88.85  45.19  79.10  <
  15  1  -11  0  105.78  48.96  84.75  <
  15  1  11  1  29.76  -5.65  77.20  <
  15  1  -11  1  35.04  75.32  82.84  <
  15  1  11  2  108.89  -39.54  65.91  <
  15  1  -11  2  116.06  97.92  86.63  <
  16  1  11  -2  68.80  84.73  77.20  <
  16  1  -11  -2  70.13  7.53  86.62  <
  16  1  11  -1  24.73  39.54  75.32  <
  16  1  -11  -1  18.31  -79.08  73.42  <
  16  1  11  0  118.38  -16.95  79.10  <
  16  1  -11  0  105.02  135.58  94.14  <
  16  1  11  1  150.20  84.74  94.17  <
  16  1  -11  1  154.33  139.35  97.93  <
  16  1  11  2  52.98  43.31  86.62  <
  16  1  -11  2  49.07  -58.37  82.84  <
  1  2  11  -2  13.60  -24.48  26.36  <
  1  2  -11  -2  13.53  -32.01  24.47  <
  1  2  11  -1  1261.46  1182.67  73.91  o
  1  2  -11  -1  1278.58  1141.20  61.08  o
  1  2  11  0  10277.80  10041.10  228.03  o
  1  2  -11  0  10301.40  10352.50  213.11  o
  1  2  11  1  34.53  30.13  33.89  <
  1  2  -11  1  34.22  37.66  28.24  <
  1  2  11  2  70.20  48.96  33.90  <
  1  2  -11  2  67.44  71.56  32.01  <
  2  2  11  -2  131.68  133.71  33.90  o
  2  2  -11  -2  128.83  122.41  32.02  o
  2  2  11  -1  2450.94  2242.56  97.68  o
  2  2  -11  -1  2436.50  2438.99  83.11  o
  2  2  11  0  2485.36  2291.35  105.06  o
  2  2  -11  0  2431.34  2357.30  94.94  o
  2  2  11  1  941.47  995.31  75.22  o
  2  2  -11  1  933.20  897.28  66.11  o
  2  2  11  2  66.17  -15.06  33.90  <
  2  2  -11  2  71.75  -5.65  28.26  <
  3  2  11  -2  7.94  5.65  26.36  <
  3  2  -11  -2  9.03  3.77  24.48  <
  3  2  11  -1  617.25  614.33  58.43  o
  3  2  -11  -1  612.26  561.56  52.91  o
  3  2  11  0  1847.37  1628.75  89.81  o
  3  2  -11  0  1799.29  1904.18  78.60  o
  3  2  11  1  15.23  -7.53  32.01  <
  3  2  -11  1  8.68  24.48  30.12  <
  3  2  11  2  144.04  97.93  50.87  <
  3  2  -11  2  137.66  152.54  39.53  o
  4  2  11  -2  12.90  -7.53  20.71  <
  4  2  -11  -2  14.19  1.88  30.13  <
  4  2  11  -1  50.89  41.43  22.60  <
  4  2  -11  -1  46.25  79.09  35.76  <
  4  2  11  0  25.62  -3.77  26.36  <
  4  2  -11  0  33.96  32.01  32.01  <
  4  2  11  1  31.33  5.65  32.01  <
  4  2  -11  1  33.13  39.54  28.24  <
  4  2  11  2  11.06  -22.59  33.89  <
  4  2  -11  2  10.56  -15.06  30.13  <
  5  2  11  -2  35.96  24.48  22.60  <
  5  2  -11  -2  37.18  52.72  35.77  <
  5  2  11  -1  578.64  544.54  45.33  o
  5  2  -11  -1  582.66  619.91  62.08  o
  5  2  11  0  4207.47  4280.13  141.33  o
  5  2  -11  0  4418.32  4305.79  135.35  o
  5  2  11  1  0.49  -1.88  35.77  <
  5  2  -11  1  1.33  -32.01  35.77  <
  5  2  11  2  72.69  67.79  41.43  <
  5  2  -11  2  69.60  65.91  43.31  <
  6  2  11  -2  54.14  94.15  30.10  o
  6  2  -11  -2  58.96  62.14  32.01  <
  6  2  11  -1  996.13  1091.46  75.04  o
  6  2  -11  -1  1023.58  1089.61  78.94  o
  6  2  11  0  2009.93  1896.56  94.97  o
  6  2  -11  0  1987.07  1911.60  98.52  o
  6  2  11  1  2476.56  2588.26  110.70  o
  6  2  -11  1  2423.27  2539.03  106.88  o
  6  2  11  2  3.34  -33.89  33.89  <
  6  2  -11  2  1.50  -13.18  35.77  <
  7  2  11  -2  25.43  41.42  32.01  <
  7  2  -11  -2  27.36  28.24  32.01  <
  7  2  11  -1  892.67  857.56  73.62  o
  7  2  -11  -1  948.06  855.72  79.44  o
  7  2  11  0  4443.32  4424.86  147.71  o
  7  2  -11  0  4374.43  4611.81  149.42  o
  7  2  11  1  314.58  325.84  62.14  o
  7  2  -11  1  340.31  380.48  60.21  o
  7  2  11  2  72.60  20.71  45.20  <
  7  2  -11  2  79.41  88.50  48.95  <
  8  2  11  -2  10.24  -5.65  33.89  <
  8  2  -11  -2  8.10  -15.06  33.89  <
  8  2  11  -1  506.90  606.61  67.59  o
  8  2  -11  -1  493.48  602.83  71.36  o
  8  2  11  0  11908.90  11987.20  263.91  o
  8  2  -11  0  11950.00  12018.20  273.60  o
  8  2  11  1  826.59  749.99  84.98  o
  8  2  -11  1  790.84  934.63  90.07  o
  8  2  11  2  41.13  -3.77  39.55  <
  8  2  -11  2  38.93  -11.30  37.66  <
  9  2  11  -2  44.42  -11.30  32.01  <
  9  2  -11  -2  39.60  35.78  37.66  <
  9  2  11  -1  1929.45  2082.65  99.15  o
  9  2  -11  -1  1883.32  1773.19  98.63  o
  9  2  11  0  4494.86  4489.13  153.21  o
  9  2  -11  0  4395.94  4503.83  159.91  o
  9  2  11  1  106.00  92.27  47.08  <
  9  2  -11  1  111.00  190.19  58.32  o
  9  2  11  2  55.98  -5.65  45.20  <
  9  2  -11  2  52.59  7.53  48.96  <
  10  2  11  -2  114.95  116.75  41.43  <
  10  2  -11  -2  109.96  56.49  39.57  <
  10  2  11  -1  448.82  363.55  60.43  o
  10  2  -11  -1  419.70  376.72  69.76  o
  10  2  11  0  173.42  167.60  50.85  o
  10  2  -11  0  197.57  26.37  45.28  <
  10  2  11  1  1404.13  1543.99  114.51  o
  10  2  -11  1  1432.10  1608.12  120.05  o
  10  2  11  2  60.15  -5.65  47.08  <
  10  2  -11  2  69.66  20.71  50.85  <
  11  2  11  -2  122.81  1.88  37.70  <
  11  2  -11  -2  121.74  54.61  47.11  <
  11  2  11  -1  576.97  487.92  69.88  o
  11  2  -11  -1  538.38  544.41  88.53  o
  11  2  11  0  3188.13  2792.42  141.91  o
  11  2  -11  0  3084.23  3145.20  156.37  o
  11  2  11  1  168.35  188.32  60.24  o
  11  2  -11  1  172.52  105.46  56.54  <
  11  2  11  2  62.85  96.03  56.48  <
  11  2  -11  2  58.78  -32.01  48.96  <
  12  2  11  -2  24.53  37.66  45.19  <
  12  2  -11  -2  26.54  -11.30  48.96  <
  12  2  11  -1  80.93  56.49  48.97  <
  12  2  -11  -1  109.21  0.00  52.75  <
  12  2  11  0  3230.53  3186.72  156.93  o
  12  2  -11  0  3139.52  3439.44  175.93  o
  12  2  11  1  117.34  26.36  50.87  <
  12  2  -11  1  144.01  24.48  60.29  <
  12  2  11  2  14.97  7.53  54.60  <
  12  2  -11  2  18.31  20.71  60.25  <
  13  2  11  -2  23.10  13.18  64.02  <
  13  2  -11  -2  20.53  5.65  52.72  <
  13  2  11  -1  943.43  960.99  105.48  o
  13  2  -11  -1  965.27  964.78  113.06  o
  13  2  11  0  2484.28  2609.10  163.61  o
  13  2  -11  0  2630.95  2488.65  162.85  o
  13  2  11  1  45.19  56.49  54.60  <
  13  2  -11  1  59.32  -20.71  62.14  <
  13  2  11  2  44.97  37.66  60.26  <
  13  2  -11  2  38.73  1.88  62.14  <
  14  2  11  -2  22.23  -39.54  58.37  <
  14  2  -11  -2  25.17  -39.54  65.90  <
  14  2  11  -1  143.51  80.97  71.58  <
  14  2  -11  -1  144.66  150.65  71.55  <
  14  2  11  0  2290.18  2557.61  153.52  o
  14  2  -11  0  2248.09  2240.66  169.77  o
  14  2  11  1  1272.07  1191.11  124.60  o
  14  2  -11  1  1273.29  1402.19  150.46  o
  14  2  11  2  16.69  -92.26  54.57  <
  14  2  -11  2  17.92  39.54  79.08  <
  15  2  11  -2  21.02  5.65  69.67  <
  15  2  -11  -2  29.53  11.30  79.08  <
  15  2  11  -1  564.11  518.01  114.96  o
  15  2  -11  -1  608.38  640.47  129.94  o
  15  2  11  0  555.09  476.56  118.76  o
  15  2  -11  0  559.81  557.56  131.86  o
  15  2  11  1  80.97  144.99  75.29  <
  15  2  -11  1  101.56  56.49  77.22  <
  15  2  11  2  20.80  71.55  71.54  <
  15  2  -11  2  22.58  5.65  77.20  <
  16  2  11  -2  17.18  1.88  80.97  <
  16  2  -11  -2  21.16  32.01  88.50  <
  16  2  11  -1  228.38  276.83  103.54  <
  16  2  -11  -1  213.95  50.85  86.68  <
  16  2  11  0  9131.43  9401.61  377.25  o
  16  2  -11  0  9289.03  9285.15  407.52  o
  1  3  11  -2  151.02  69.68  33.96  <
  1  3  -11  -2  150.51  124.29  33.93  o
  1  3  11  -1  1144.39  1089.80  73.75  o
  1  3  -11  -1  1170.96  1023.84  68.50  o
  1  3  11  0  400.42  395.58  56.52  o
  1  3  -11  0  495.64  397.51  52.96  o
  1  3  11  1  2185.05  2264.64  112.81  o
  1  3  -11  1  2215.48  2176.01  94.61  o
  1  3  11  2  36.37  -11.30  39.54  <
  1  3  -11  2  37.24  -16.95  32.01  <
  2  3  11  -2  82.75  18.83  33.92  <
  2  3  -11  -2  82.99  -18.83  26.38  <
  2  3  11  -1  153.22  145.01  45.20  o
  2  3  -11  -1  176.92  111.11  37.73  <
  2  3  11  0  14010.10  14195.20  317.12  o
  2  3  -11  0  14007.00  13443.70  277.09  o
  2  3  11  1  3424.88  3378.55  140.13  o
  2  3  -11  1  3404.01  3119.61  113.65  o
  2  3  11  2  91.11  79.09  45.20  <
  2  3  -11  2  83.39  28.25  37.68  <
  3  3  11  -2  89.16  60.26  35.79  <
  3  3  -11  -2  90.61  77.21  30.14  <
  3  3  11  -1  443.15  354.16  64.19  o
  3  3  -11  -1  425.70  408.79  50.90  o
  3  3  11  0  394.18  531.20  78.89  o
  3  3  -11  0  433.95  350.38  51.03  o
  3  3  11  1  1846.08  1750.60  109.83  o
  3  3  -11  1  1799.16  1475.11  84.63  o
  3  3  11  2  30.82  56.49  48.95  <
  3  3  -11  2  33.32  20.71  35.78  <
  4  3  11  -2  2.73  41.42  35.77  <
  4  3  -11  -2  3.44  -13.18  26.36  <
  4  3  11  -1  3.17  -22.59  32.01  <
  4  3  -11  -1  6.76  -24.48  30.12  <
  4  3  11  0  1483.06  1572.79  99.58  o
  4  3  -11  0  1465.56  1459.61  84.89  o
  4  3  11  1  0.79  -47.07  35.76  <
  4  3  -11  1  1.05  -30.13  37.65  <
  4  3  11  2  19.65  -5.65  41.42  <
  4  3  -11  2  16.73  -7.53  39.54  <
  5  3  11  -2  76.34  9.42  33.91  <
  5  3  -11  -2  69.27  32.01  35.79  <
  5  3  11  -1  377.40  327.76  58.47  o
  5  3  -11  -1  315.82  340.92  62.12  o
  5  3  11  0  1756.48  1739.14  101.94  o
  5  3  -11  0  1648.45  1776.67  110.74  o
  5  3  11  1  1798.52  1869.18  105.29  o
  5  3  -11  1  1724.17  1936.95  116.02  o
  5  3  11  2  11.67  33.89  41.42  <
  5  3  -11  2  13.28  -15.06  45.19  <
  6  3  11  -2  57.62  16.95  35.79  <
  6  3  -11  -2  55.61  9.41  37.67  <
  6  3  11  -1  263.22  244.84  56.52  o
  6  3  -11  -1  294.27  252.38  52.79  o
  6  3  11  0  14445.10  15019.40  315.62  o
  6  3  -11  0  14443.10  14251.70  330.68  o
  6  3  11  1  1960.90  2078.75  112.61  o
  6  3  -11  1  1967.24  2203.26  125.32  o
  6  3  11  2  63.29  75.32  48.95  <
  6  3  -11  2  59.95  48.96  50.84  <
  7  3  11  -2  81.55  33.89  41.44  <
  7  3  -11  -2  72.56  1.88  35.79  <
  7  3  11  -1  158.76  120.52  47.11  <
  7  3  -11  -1  169.60  128.06  47.11  <
  7  3  11  0  363.75  278.76  66.03  o
  7  3  -11  0  344.99  350.33  62.15  o
  7  3  11  1  1683.53  1700.94  114.96  o
  7  3  -11  1  1713.61  1668.93  109.56  o
  7  3  11  2  11.78  -1.88  48.96  <
  7  3  -11  2  12.17  64.02  52.71  <
  8  3  11  -2  21.35  56.49  41.41  <
  8  3  -11  -2  18.97  26.36  37.66  <
  8  3  11  -1  1041.34  1059.23  99.84  o
  8  3  -11  -1  1041.64  1142.15  92.03  o
  8  3  11  0  752.67  887.45  97.67  o
  8  3  -11  0  805.47  861.11  92.19  o
  8  3  11  1  1.76  20.71  52.72  <
  8  3  -11  1  2.14  1.88  47.07  <
  8  3  11  2  13.61  -1.88  54.60  <
  8  3  -11  2  15.82  5.65  52.72  <
  9  3  11  -2  29.12  3.77  33.90  <
  9  3  -11  -2  25.90  16.95  43.31  <
  9  3  11  -1  486.67  565.11  80.86  o
  9  3  -11  -1  541.89  493.56  77.32  o
  9  3  11  0  683.03  857.22  103.26  o
  9  3  -11  0  886.22  723.59  94.57  o
  9  3  11  1  1634.72  1864.72  131.15  o
  9  3  -11  1  1705.57  1766.79  122.33  o
  9  3  11  2  12.22  16.95  56.49  <
  9  3  -11  2  10.69  -20.71  48.95  <
  10  3  11  -2  21.55  -5.65  43.31  <
  10  3  -11  -2  22.39  5.65  43.31  <
  10  3  11  -1  170.30  124.29  56.53  <
  10  3  -11  -1  184.84  48.96  52.79  <
  10  3  11  0  1299.67  1125.30  115.46  o
  10  3  -11  0  1258.84  1357.10  126.01  o
  10  3  11  1  1399.11  1334.59  128.36  o
  10  3  -11  1  1414.21  1462.79  128.04  o
  10  3  11  2  94.09  80.97  65.91  <
  10  3  -11  2  95.17  128.05  60.24  <
  11  3  11  -2  23.32  24.48  47.07  <
  11  3  -11  -2  26.51  39.54  54.60  <
  11  3  11  -1  111.59  103.57  58.38  <
  11  3  -11  -1  131.56  99.80  58.39  <
  11  3  11  0  822.35  881.77  109.15  o
  11  3  -11  0  757.06  994.77  118.20  o
  11  3  11  1  976.05  1123.05  127.81  o
  11  3  -11  1  956.71  785.75  104.01  o
  11  3  11  2  61.03  28.24  62.14  <
  11  3  -11  2  62.68  -16.95  56.49  <
  12  3  11  -2  3.82  -9.41  48.95  <
  12  3  -11  -2  5.38  5.65  56.49  <
  12  3  11  -1  574.33  487.89  88.67  o
  12  3  -11  -1  587.23  470.94  96.24  o
  12  3  11  0  197.72  116.76  65.96  <
  12  3  -11  0  227.96  210.92  77.22  <
  12  3  11  1  38.48  84.73  62.12  <
  12  3  -11  1  40.84  41.42  67.79  <
  12  3  11  2  49.50  -15.06  62.14  <
  12  3  -11  2  41.85  -58.37  60.24  <
  13  3  11  -2  38.51  73.43  58.36  <
  13  3  -11  -2  35.83  47.07  65.90  <
  13  3  11  -1  350.29  271.21  79.18  o
  13  3  -11  -1  306.23  271.20  86.66  o
  13  3  11  0  2352.59  2037.09  152.09  o
  13  3  -11  0  2257.27  2383.98  171.17  o
  13  3  11  1  529.48  395.56  94.35  o
  13  3  -11  1  483.42  391.78  103.69  o
  13  3  11  2  34.41  43.31  75.32  <
  13  3  -11  2  36.23  22.60  69.67  <
  14  3  11  -2  3.13  -15.06  56.49  <
  14  3  -11  -2  3.76  -15.06  64.02  <
  14  3  11  -1  184.21  133.70  77.24  <
  14  3  -11  -1  187.11  295.65  94.08  o
  14  3  11  0  7829.41  8172.71  294.80  o
  14  3  -11  0  7857.75  8447.45  476.37  o
  14  3  11  1  202.57  186.43  88.52  <
  14  3  -11  1  186.79  308.83  94.06  o
  15  3  11  -2  14.05  16.95  75.32  <
  15  3  -11  -2  17.19  -1.88  88.50  <
  15  3  11  -1  252.10  186.44  84.79  <
  15  3  -11  -1  232.93  310.73  97.87  o
  1  4  11  -2  0.23  -7.53  32.01  <
  1  4  -11  -2  0.56  -16.95  28.24  <
  1  4  11  -1  611.84  535.07  71.75  o
  1  4  -11  -1  672.99  606.70  64.23  o
  1  4  11  0  12239.60  12483.10  302.09  o
  1  4  -11  0  12124.80  12017.00  264.13  o
  1  4  11  1  308.71  265.56  73.50  o
  1  4  -11  1  324.12  271.21  54.69  o
  1  4  11  2  149.36  20.71  50.89  <
  1  4  -11  2  145.23  165.71  48.94  o
  2  4  11  -2  16.89  50.84  43.30  <
  2  4  -11  -2  18.85  5.65  32.01  <
  2  4  11  -1  3576.35  3389.95  141.05  o
  2  4  -11  -1  3574.38  3301.13  119.25  o
  2  4  11  0  2565.82  2553.67  132.18  o
  2  4  -11  0  2526.80  2357.29  108.59  o
  2  4  11  1  27.86  54.61  48.95  <
  2  4  -11  1  28.91  15.06  39.54  <
  2  4  11  2  67.70  16.95  54.62  <
  2  4  -11  2  81.86  -3.77  47.09  <
  3  4  11  -2  2.65  18.83  41.42  <
  3  4  -11  -2  3.48  -5.65  32.01  <
  3  4  11  -1  556.34  568.94  82.87  o
  3  4  -11  -1  567.95  531.27  62.26  o
  3  4  11  0  5306.13  5331.97  192.80  o
  3  4  -11  0  5670.51  5133.13  185.85  o
  3  4  11  1  327.27  401.17  77.12  o
  3  4  -11  1  341.32  387.99  69.62  o
  3  4  11  2  246.60  220.34  64.06  o
  3  4  -11  2  236.32  276.84  67.76  o
  4  4  11  -2  9.14  -16.95  33.89  <
  4  4  -11  -2  8.98  -28.24  37.65  <
  4  4  11  -1  80.06  56.49  45.20  <
  4  4  -11  -1  71.91  24.48  41.44  <
  4  4  11  0  529.78  593.39  80.88  o
  4  4  -11  0  547.00  550.08  81.00  o
  4  4  11  1  7.88  -37.66  43.30  <
  4  4  -11  1  13.04  18.83  47.07  <
  4  4  11  2  25.18  5.65  50.84  <
  4  4  -11  2  23.81  -33.89  43.30  <
  5  4  11  -2  9.04  39.54  41.42  <
  5  4  -11  -2  8.58  0.00  43.31  <
  5  4  11  -1  1024.69  964.96  94.40  o
  5  4  -11  -1  979.62  891.42  96.34  o
  5  4  11  0  2970.54  2871.40  138.37  o
  5  4  -11  0  2860.88  2825.82  145.53  o
  5  4  11  1  216.95  190.21  65.93  <
  5  4  -11  1  199.48  105.46  56.56  <
  5  4  11  2  217.15  152.54  64.08  <
  5  4  -11  2  209.49  52.73  58.45  <
  6  4  11  -2  36.94  30.13  47.08  <
  6  4  -11  -2  40.19  58.37  47.07  <
  6  4  11  -1  1598.33  1781.91  108.59  o
  6  4  -11  -1  1598.18  1625.40  116.81  o
  6  4  11  0  1928.17  2023.70  129.74  o
  6  4  -11  0  1926.61  1706.85  125.31  o
  6  4  11  1  139.41  139.35  60.26  <
  6  4  -11  1  125.51  20.71  62.17  <
  6  4  11  2  6.14  9.41  58.37  <
  6  4  -11  2  9.53  24.48  71.55  <
  7  4  11  -2  22.23  80.97  47.05  <
  7  4  -11  -2  21.61  20.71  39.54  <
  7  4  11  -1  220.12  75.33  54.70  <
  7  4  -11  -1  220.32  205.27  58.40  o
  7  4  11  0  2964.85  2978.58  166.04  o
  7  4  -11  0  2646.09  2945.71  162.78  o
  7  4  11  1  377.98  425.66  86.58  o
  7  4  -11  1  369.47  346.55  81.01  o
  7  4  11  2  145.85  111.10  65.93  <
  7  4  -11  2  163.17  111.10  65.94  <
  8  4  11  -2  20.01  -5.65  47.07  <
  8  4  -11  -2  16.52  35.78  48.95  <
  8  4  11  -1  188.86  195.85  71.56  <
  8  4  -11  -1  164.01  241.04  69.61  o
  8  4  11  0  1485.33  1557.15  137.40  o
  8  4  -11  0  1469.31  1585.40  141.05  o
  8  4  11  1  422.93  295.71  86.77  o
  8  4  -11  1  399.95  448.27  90.35  o
  8  4  11  2  8.82  47.07  67.78  <
  8  4  -11  2  8.44  -22.59  58.37  <
  9  4  11  -2  26.49  -18.83  52.72  <
  9  4  -11  -2  21.99  0.00  47.07  <
  9  4  11  -1  1633.97  1745.89  141.04  o
  9  4  -11  -1  1673.22  1508.37  130.62  o
  9  4  11  0  8831.05  9167.23  304.50  o
  9  4  -11  0  8883.49  9050.05  349.64  o
  9  4  11  1  349.99  175.15  77.36  <
  9  4  -11  1  336.27  199.64  75.45  <
  9  4  11  2  168.69  156.30  80.98  <
  9  4  -11  2  160.18  128.05  75.34  <
  10  4  11  -2  15.55  64.02  56.48  <
  10  4  -11  -2  16.69  -28.24  48.95  <
  10  4  11  -1  1639.99  1809.92  144.62  o
  10  4  -11  -1  1627.41  1759.00  129.62  o
  10  4  11  0  118.05  177.01  77.17  <
  10  4  -11  0  187.01  205.26  75.31  <
  10  4  11  1  135.53  148.76  79.08  <
  10  4  -11  1  143.34  146.88  73.44  <
  10  4  11  2  51.31  26.36  75.32  <
  10  4  -11  2  63.73  47.07  71.56  <
  11  4  11  -2  97.11  50.84  64.04  <
  11  4  -11  -2  94.40  82.85  65.91  <
  11  4  11  -1  776.67  617.96  105.77  o
  11  4  -11  -1  778.38  778.10  111.16  o
  11  4  11  0  5335.84  5984.97  251.26  o
  11  4  -11  0  5536.65  5488.61  229.08  o
  11  4  11  1  318.99  333.35  97.92  o
  11  4  -11  1  322.07  323.93  88.51  o
  11  4  11  2  134.63  129.93  92.27  <
  11  4  -11  2  125.43  201.49  90.35  <
  12  4  11  -2  67.62  64.02  60.26  <
  12  4  -11  -2  74.11  101.68  67.78  <
  12  4  11  -1  323.57  216.58  82.95  <
  12  4  -11  -1  304.31  209.05  79.18  <
  12  4  11  0  1709.35  1779.66  163.81  o
  12  4  -11  0  1691.42  1694.80  152.69  o
  12  4  11  1  45.82  90.38  84.72  <
  12  4  -11  1  65.06  75.32  79.08  <
  13  4  11  -2  17.91  28.24  67.78  <
  13  4  -11  -2  17.73  3.77  73.43  <
  13  4  11  -1  1632.15  1707.92  160.02  o
  13  4  -11  -1  1651.93  1378.04  155.27  o
  13  4  11  0  1497.62  1496.61  162.10  o
  13  4  -11  0  1466.28  1536.16  160.04  o
  14  4  11  -2  38.39  -56.49  64.01  <
  14  4  -11  -2  42.23  -47.07  77.20  <
  1  5  11  -2  229.90  135.60  60.33  <
  1  5  -11  -2  230.48  190.21  49.01  o
  1  5  11  -1  2525.41  2415.33  143.91  o
  1  5  -11  -1  2538.04  2566.31  116.83  o
  1  5  11  0  279.33  310.75  79.07  o
  1  5  -11  0  307.35  284.39  64.06  o
  1  5  11  1  2071.66  2155.61  158.12  o
  1  5  -11  1  2078.54  2223.51  135.17  o
  1  5  11  2  68.99  -26.36  77.20  <
  1  5  -11  2  66.75  7.53  58.38  <
  2  5  11  -2  104.45  18.83  48.98  <
  2  5  -11  -2  94.63  -24.48  33.91  <
  2  5  11  -1  865.53  994.90  114.65  o
  2  5  -11  -1  937.79  981.77  99.76  o
  2  5  11  0  120.98  169.48  71.53  <
  2  5  -11  0  125.54  146.88  58.36  <
  2  5  11  1  623.19  429.51  109.49  o
  2  5  -11  1  632.62  632.96  92.31  o
  2  5  11  2  9.56  20.71  71.55  <
  2  5  -11  2  8.88  13.18  56.49  <
  3  5  11  -2  136.08  165.71  56.47  <
  3  5  -11  -2  141.52  180.78  54.58  o
  3  5  11  -1  3030.02  3014.67  137.89  o
  3  5  -11  -1  3006.97  3139.19  144.60  o
  3  5  11  0  151.07  54.61  60.30  <
  3  5  -11  0  172.45  163.83  62.15  <
  3  5  11  1  1958.41  1602.86  153.81  o
  3  5  -11  1  1918.67  1721.61  132.71  o
  3  5  11  2  58.75  -28.24  69.67  <
  3  5  -11  2  59.21  69.67  65.90  <
  4  5  11  -2  22.32  20.71  48.96  <
  4  5  -11  -2  22.64  48.96  47.07  <
  4  5  11  -1  10.19  3.77  47.07  <
  4  5  -11  -1  9.59  60.25  52.71  <
  4  5  11  0  651.58  676.31  99.80  o
  4  5  -11  0  628.77  712.09  99.69  o
  4  5  11  1  32.29  50.84  67.78  <
  4  5  -11  1  28.02  67.79  62.13  <
  4  5  11  2  5.91  -22.59  64.02  <
  4  5  -11  2  4.45  -7.53  67.78  <
  5  5  11  -2  108.22  33.90  48.98  <
  5  5  -11  -2  102.21  173.24  60.21  <
  5  5  11  -1  1862.76  2038.50  135.09  o
  5  5  -11  -1  1871.34  1717.94  126.92  o
  5  5  11  0  665.25  783.69  107.16  o
  5  5  -11  0  588.79  653.66  116.70  o
  5  5  11  1  2125.29  2404.52  155.43  o
  5  5  -11  1  2045.19  2127.16  178.89  o
  5  5  11  2  55.89  116.74  79.06  <
  5  5  -11  2  56.20  -54.61  67.78  <
  6  5  11  -2  69.60  13.18  52.73  <
  6  5  -11  -2  69.57  65.90  54.61  <
  6  5  11  -1  800.14  1043.79  120.06  o
  6  5  -11  -1  903.32  731.09  120.89  o
  6  5  11  0  643.71  619.78  98.00  o
  6  5  -11  0  656.90  495.45  94.44  o
  6  5  11  1  414.05  350.33  94.24  o
  6  5  -11  1  421.95  386.11  96.10  o
  6  5  11  2  2.08  39.54  75.31  <
  6  5  -11  2  3.06  13.18  71.55  <
  7  5  11  -2  132.62  201.49  69.63  <
  7  5  -11  -2  125.96  52.73  56.52  <
  7  5  11  -1  1439.13  1221.49  132.52  o
  7  5  -11  -1  1384.34  1724.71  144.13  o
  7  5  11  0  82.21  112.98  75.31  <
  7  5  -11  0  81.60  60.26  62.15  <
  7  5  11  1  2121.20  2330.86  174.66  o
  7  5  -11  1  2147.94  2213.99  165.72  o
  7  5  11  2  38.46  -71.55  69.65  <
  7  5  -11  2  44.45  -26.36  69.67  <
  8  5  11  -2  1.17  -75.32  50.82  <
  8  5  -11  -2  0.47  -26.36  52.72  <
  8  5  11  -1  191.06  152.54  75.35  <
  8  5  -11  -1  188.38  148.77  77.23  <
  8  5  11  0  145.08  52.73  75.35  <
  8  5  -11  0  201.30  109.22  71.61  <
  8  5  11  1  138.75  65.91  80.99  <
  8  5  -11  1  145.71  73.44  75.35  <
  9  5  11  -2  130.68  37.66  64.05  <
  9  5  -11  -2  131.04  79.09  64.05  <
  9  5  11  -1  1627.94  1613.72  156.51  o
  9  5  -11  -1  1649.95  1625.06  150.89  o
  9  5  11  0  719.84  896.72  133.46  o
  9  5  -11  0  840.10  663.18  115.22  o
  9  5  11  1  1743.44  1553.43  158.88  o
  9  5  -11  1  1767.48  1534.60  164.63  o
  10  5  11  -2  81.23  -30.13  62.14  <
  10  5  -11  -2  83.97  30.13  67.80  <
  10  5  11  -1  623.33  487.89  103.79  o
  10  5  -11  -1  668.36  508.63  105.72  o
  10  5  11  0  1181.75  1192.88  152.62  o
  10  5  -11  0  1178.79  996.89  137.94  o
  11  5  11  -2  121.31  35.78  71.58  <
  11  5  -11  -2  120.94  97.92  71.57  <
  11  5  11  -1  822.51  813.89  131.89  o
  11  5  -11  -1  848.86  740.43  120.76  o
  12  5  11  -2  21.45  -47.07  65.90  <
  12  5  -11  -2  20.85  9.41  71.55  <
  1  6  11  -2  51.36  45.19  64.02  <
  1  6  -11  -2  47.74  -37.66  47.07  <
  1  6  11  -1  195.80  209.03  79.08  <
  1  6  -11  -1  221.37  154.42  65.96  <
  1  6  11  0  4850.55  4795.73  274.24  o
  1  6  -11  0  4773.40  5037.31  209.97  o
  1  6  11  1  226.32  165.72  111.14  <
  1  6  -11  1  242.30  97.93  84.81  <
  2  6  11  -2  33.15  -7.53  56.49  <
  2  6  -11  -2  27.56  48.96  50.83  <
  2  6  11  -1  401.01  459.56  101.64  o
  2  6  -11  -1  394.58  446.38  84.69  o
  2  6  11  0  1578.60  1670.16  169.42  o
  2  6  -11  0  1544.91  1943.45  153.32  o
  3  6  11  -2  37.75  69.67  65.90  <
  3  6  -11  -2  35.02  111.09  63.99  <
  3  6  11  -1  109.94  126.16  77.20  <
  3  6  -11  -1  111.58  62.14  62.16  <
  3  6  11  0  376.82  308.88  96.12  o
  3  6  -11  0  420.10  585.76  105.25  o
  4  6  11  -2  11.49  -60.25  56.47  <
  4  6  -11  -2  10.78  43.31  56.48  <
  4  6  11  -1  50.25  161.93  84.69  <
  4  6  -11  -1  49.99  22.60  69.67  <
  4  6  11  0  1.46  -28.24  69.66  <
  4  6  -11  0  2.89  -22.59  71.55  <
  5  6  11  -2  20.72  73.43  62.12  <
  5  6  -11  -2  19.53  67.78  71.54  <
  5  6  11  -1  499.51  760.97  125.83  o
  5  6  -11  -1  469.67  499.14  114.86  o
  5  6  11  0  273.43  350.29  103.51  o
  5  6  -11  0  409.38  467.09  122.37  o
  6  6  11  -2  19.18  -9.41  65.90  <
  6  6  -11  -2  15.95  0.00  60.25  <
  6  6  11  -1  288.06  410.56  101.58  o
  6  6  -11  -1  290.56  244.83  86.67  <
  7  6  11  -2  48.47  32.01  65.91  <
  7  6  -11  -2  48.33  9.41  65.91  <
  7  6  11  -1  376.13  190.22  94.30  <
  7  6  -11  -1  357.55  329.59  94.20  o
  8  6  11  -2  5.96  -60.25  65.89  <
  8  6  -11  -2  4.24  84.73  71.53  <
  8  6  11  -1  161.13  231.62  96.00  <
  8  6  -11  -1  142.82  280.58  92.18  o
  9  6  11  -2  11.23  26.36  75.31  <
  9  6  -11  -2  8.89  11.30  75.32  <
  1  7  11  -2  150.86  80.97  94.18  <
  1  7  -11  -2  149.15  126.17  73.45  <
  2  7  11  -2  48.87  109.21  80.95  <
  2  7  -11  -2  45.16  39.54  65.90  <
  3  7  11  -2  59.65  37.66  79.09  <
  3  7  -11  -2  62.80  67.79  82.85  <
  0  0  12  0  167315.00  164483.00  3543.36  o
  0  0  -12  0  167447.00  169651.00  3420.91  o
  0  0  12  1  1493.71  1524.68  79.10  o
  0  0  -12  1  1485.36  1590.70  78.70  o
  0  0  12  2  52.82  52.72  33.89  <
  0  0  -12  2  49.01  16.95  30.14  <
  1  0  12  1  306.39  312.70  35.78  o
  1  0  -12  1  292.78  399.34  35.50  o
  1  0  12  2  25.16  16.95  22.60  <
  1  0  -12  2  25.78  1.88  26.36  <
  2  0  12  0  313.70  158.23  43.53  o
  2  0  -12  0  274.52  303.26  48.93  o
  2  0  12  1  79.41  41.43  24.50  <
  2  0  -12  1  78.63  54.61  22.61  <
  2  0  12  2  0.13  -5.65  20.71  <
  2  0  -12  2  0.10  1.88  24.48  <
  3  0  12  1  560.61  476.74  41.73  o
  3  0  -12  1  595.32  572.86  52.83  o
  3  0  12  2  6.68  -9.41  30.13  <
  3  0  -12  2  8.51  26.36  28.24  <
  4  0  12  0  2579.45  2314.42  144.77  o
  4  0  -12  0  2700.23  2543.44  112.46  o
  4  0  12  1  164.05  122.41  28.30  o
  4  0  -12  1  160.02  143.13  33.92  o
  4  0  12  2  36.48  15.06  24.48  <
  4  0  -12  2  37.86  39.54  33.89  <
  5  0  12  1  401.76  350.39  45.32  o
  5  0  -12  1  407.23  418.21  43.30  o
  5  0  12  2  43.20  11.30  26.37  <
  5  0  -12  2  43.92  16.95  28.25  <
  6  0  12  0  4726.63  4836.05  209.51  o
  6  0  -12  0  4753.71  4453.70  159.47  o
  6  0  12  1  27.78  20.71  30.13  <
  6  0  -12  1  30.45  3.77  24.48  <
  6  0  12  2  21.36  3.77  30.13  <
  6  0  -12  2  22.24  -28.24  28.24  <
  7  0  12  1  557.30  491.74  60.44  o
  7  0  -12  1  541.64  559.56  48.93  o
  7  0  12  2  58.26  41.43  35.78  <
  7  0  -12  2  56.71  22.60  33.90  <
  8  0  12  0  47973.10  47517.60  1004.96  o
  8  0  -12  0  47998.20  45298.80  832.41  o
  8  0  12  1  137.60  101.69  41.46  <
  8  0  -12  1  136.19  152.54  41.41  o
  8  0  12  2  63.12  30.13  35.79  <
  8  0  -12  2  61.22  11.30  33.91  <
  9  0  12  1  400.62  444.54  67.74  o
  9  0  -12  1  418.38  391.80  60.32  o
  9  0  12  2  63.14  -1.88  37.67  <
  9  0  -12  2  54.77  11.30  39.55  <
  10  0  12  0  8569.13  8769.09  363.15  o
  10  0  -12  0  8733.06  9279.20  324.36  o
  10  0  12  1  315.73  346.55  63.99  o
  10  0  -12  1  307.12  269.33  54.67  o
  10  0  12  2  29.29  -20.71  37.66  <
  10  0  -12  2  30.51  54.61  43.30  <
  11  0  12  1  403.45  367.29  71.63  o
  11  0  -12  1  414.82  331.51  66.05  o
  11  0  12  2  11.17  3.77  43.31  <
  11  0  -12  2  8.10  18.83  45.19  <
  12  0  12  0  14356.90  14707.90  523.36  o
  12  0  -12  0  14472.70  15092.40  521.32  o
  12  0  12  1  35.69  -9.41  45.19  <
  12  0  -12  1  38.60  41.42  50.84  <
  12  0  12  2  9.96  24.48  48.95  <
  12  0  -12  2  9.81  13.18  50.84  <
  13  0  12  1  580.41  761.04  101.39  o
  13  0  -12  1  550.29  472.81  103.70  o
  13  0  12  2  76.68  15.06  50.85  <
  13  0  -12  2  77.75  0.00  54.62  <
  14  0  12  0  9219.19  8999.52  410.88  o
  14  0  -12  0  9320.32  8892.12  625.56  o
  14  0  12  1  1.83  -41.42  54.60  <
  14  0  -12  1  0.09  -92.26  65.88  <
  14  0  12  2  15.32  -11.30  58.37  <
  14  0  -12  2  17.87  -86.61  71.53  <
  15  0  12  1  364.71  220.36  90.52  <
  15  0  -12  1  374.97  403.05  114.86  o
  15  0  12  2  61.11  96.03  80.96  <
  15  0  -12  2  66.08  124.28  92.25  <
  16  0  12  0  5568.75  5308.32  480.95  o
  16  0  12  1  206.62  139.35  86.66  <
  16  0  -12  1  193.21  282.47  112.94  <
  16  0  12  2  50.65  9.41  77.20  <
  16  0  -12  2  47.76  3.77  92.27  <
  0  1  12  -2  207.54  265.57  45.12  o
  0  1  -12  -2  214.34  218.48  43.31  o
  0  1  12  -1  124.14  233.52  43.18  o
  0  1  -12  -1  155.20  75.33  33.96  <
  0  1  12  0  6407.60  5800.02  171.06  o
  0  1  -12  0  6347.93  6025.59  234.02  o
  0  1  12  1  2751.65  2887.71  158.10  o
  0  1  -12  1  2816.75  2840.71  147.30  o
  0  1  12  2  127.21  235.40  73.37  o
  0  1  -12  2  130.24  201.50  62.09  o
  1  1  12  -2  27.71  22.60  22.60  <
  1  1  -12  -2  28.41  13.18  18.83  <
  1  1  12  -1  853.15  825.71  47.26  o
  1  1  -12  -1  831.46  938.79  46.58  o
  1  1  12  0  723.65  599.36  55.05  o
  1  1  -12  0  622.00  610.58  52.80  o
  1  1  12  1  492.48  631.18  71.29  o
  1  1  -12  1  496.97  452.19  56.62  o
  1  1  12  2  14.15  18.83  35.77  <
  1  1  -12  2  13.81  -7.53  30.13  <
  2  1  12  -2  8.15  -3.77  22.59  <
  2  1  -12  -2  8.11  5.65  20.71  <
  2  1  12  -1  10.11  16.95  20.71  <
  2  1  -12  -1  10.74  -7.53  24.48  <
  2  1  12  0  81.40  86.62  32.01  <
  2  1  -12  0  72.01  94.15  32.00  <
  2  1  12  1  210.93  186.46  45.23  o
  2  1  -12  1  210.38  205.29  35.79  o
  2  1  12  2  1.57  47.07  33.88  <
  2  1  -12  2  1.24  16.95  30.12  <
  3  1  12  -2  14.54  -3.77  22.60  <
  3  1  -12  -2  15.06  20.71  30.13  <
  3  1  12  -1  469.76  506.82  52.66  o
  3  1  -12  -1  486.42  520.02  50.78  o
  3  1  12  0  3973.46  4052.51  116.63  o
  3  1  -12  0  4078.00  4005.74  114.27  o
  3  1  12  1  177.84  152.55  41.46  o
  3  1  -12  1  186.68  190.22  37.66  o
  3  1  12  2  2.53  -3.77  32.01  <
  3  1  -12  2  3.68  -18.83  26.36  <
  4  1  12  -2  25.30  33.89  24.48  <
  4  1  -12  -2  27.97  -20.71  22.59  <
  4  1  12  -1  31.15  28.24  24.48  <
  4  1  -12  -1  26.13  16.95  28.25  <
  4  1  12  0  26514.00  25628.80  360.02  o
  4  1  -12  0  26725.70  26200.20  435.00  o
  4  1  12  1  2914.96  2704.11  81.31  o
  4  1  -12  1  2875.48  3011.97  106.70  o
  4  1  12  2  9.77  -26.36  28.24  <
  4  1  -12  2  7.90  -41.42  28.23  <
  5  1  12  -2  31.00  37.66  30.13  <
  5  1  -12  -2  28.34  13.18  24.48  <
  5  1  12  -1  275.40  252.39  39.59  o
  5  1  -12  -1  287.22  348.46  39.42  o
  5  1  12  0  1397.59  1506.99  63.45  o
  5  1  -12  0  1455.30  1359.97  74.04  o
  5  1  12  1  255.22  267.45  37.65  o
  5  1  -12  1  264.62  261.80  48.97  o
  5  1  12  2  30.51  15.06  33.90  <
  5  1  -12  2  33.67  56.49  33.88  <
  6  1  12  -2  20.15  24.48  35.78  <
  6  1  -12  -2  20.61  33.89  26.36  <
  6  1  12  -1  973.26  993.42  65.90  o
  6  1  -12  -1  954.60  1127.23  57.59  o
  6  1  12  0  1283.27  1157.81  72.21  o
  6  1  -12  0  1284.53  1359.58  75.07  o
  6  1  12  1  416.02  357.92  54.74  o
  6  1  -12  1  415.40  372.99  49.07  o
  6  1  12  2  57.11  -16.95  35.78  <
  6  1  -12  2  57.56  -5.65  33.90  <
  7  1  12  -2  3.80  -37.66  30.12  <
  7  1  -12  -2  4.44  20.71  28.24  <
  7  1  12  -1  415.90  414.43  52.75  o
  7  1  -12  -1  411.99  316.47  41.66  o
  7  1  12  0  876.24  882.04  75.37  o
  7  1  -12  0  742.97  765.07  71.55  o
  7  1  12  1  120.05  101.69  39.56  <
  7  1  -12  1  123.25  128.05  45.19  <
  7  1  12  2  3.35  11.30  37.66  <
  7  1  -12  2  3.98  -26.36  37.65  <
  8  1  12  -2  111.80  52.73  35.81  <
  8  1  -12  -2  111.55  80.97  37.68  <
  8  1  12  -1  576.41  785.64  82.41  o
  8  1  -12  -1  582.13  585.94  67.82  o
  8  1  12  0  6242.30  6371.13  175.00  o
  8  1  -12  0  6266.36  6077.55  177.99  o
  8  1  12  1  5200.79  5415.27  151.31  o
  8  1  -12  1  5200.44  5428.52  153.10  o
  8  1  12  2  71.97  62.14  37.67  <
  8  1  -12  2  71.31  71.55  43.31  <
  9  1  12  -2  6.82  -1.88  33.89  <
  9  1  -12  -2  6.91  -3.77  35.78  <
  9  1  12  -1  185.04  190.21  48.96  o
  9  1  -12  -1  173.90  248.58  54.53  o
  9  1  12  0  1127.07  1087.62  86.84  o
  9  1  -12  0  1203.13  1198.92  86.73  o
  9  1  12  1  122.51  88.51  43.33  <
  9  1  -12  1  122.72  86.62  47.10  <
  9  1  12  2  31.06  -22.60  35.77  <
  9  1  -12  2  26.63  -13.18  39.54  <
  10  1  12  -2  180.95  67.80  47.15  <
  10  1  -12  -2  185.12  124.29  49.01  <
  10  1  12  -1  693.00  744.22  82.78  o
  10  1  -12  -1  701.62  732.92  82.83  o
  10  1  12  0  682.64  540.73  75.66  o
  10  1  -12  0  640.22  576.50  77.38  o
  10  1  12  1  448.37  582.05  75.09  o
  10  1  -12  1  457.51  453.96  65.93  o
  10  1  12  2  77.05  -11.30  39.55  <
  10  1  -12  2  79.50  9.42  48.97  <
  11  1  12  -2  22.62  11.30  45.19  <
  11  1  -12  -2  20.89  30.13  41.42  <
  11  1  12  -1  116.85  80.97  52.74  <
  11  1  -12  -1  102.55  48.96  48.98  <
  11  1  12  0  652.57  531.28  75.60  o
  11  1  -12  0  670.12  761.13  97.79  o
  11  1  12  1  102.39  150.64  54.58  <
  11  1  -12  1  111.22  154.41  64.00  <
  11  1  12  2  27.00  -7.53  41.43  <
  11  1  -12  2  25.22  1.88  50.84  <
  12  1  12  -2  69.87  118.63  52.70  <
  12  1  -12  -2  76.21  73.44  50.84  <
  12  1  12  -1  234.82  278.72  67.75  o
  12  1  -12  -1  245.21  135.60  62.23  <
  12  1  12  0  6660.89  6853.78  233.28  o
  12  1  -12  0  6749.64  6681.98  240.97  o
  12  1  12  1  1350.02  1279.90  105.79  o
  12  1  -12  1  1393.74  1180.04  124.99  o
  12  1  12  2  6.77  43.31  56.48  <
  12  1  -12  2  9.71  -9.41  50.84  <
  13  1  12  -2  51.50  18.83  48.96  <
  13  1  -12  -2  48.65  3.77  62.14  <
  13  1  12  -1  6.91  -37.66  52.72  <
  13  1  -12  -1  8.24  11.30  56.49  <
  13  1  12  0  466.90  448.29  86.67  o
  13  1  -12  0  470.69  406.86  88.61  o
  13  1  12  1  213.61  276.83  86.58  o
  13  1  -12  1  203.73  122.41  71.61  <
  13  1  12  2  22.95  -7.53  54.61  <
  13  1  -12  2  27.55  47.07  62.13  <
  14  1  12  -2  23.24  5.65  56.49  <
  14  1  -12  -2  19.21  -16.95  64.02  <
  14  1  12  -1  644.11  567.03  96.20  o
  14  1  -12  -1  629.38  585.86  122.50  o
  14  1  12  0  2532.62  2842.99  191.24  o
  14  1  -12  0  2507.58  2641.08  242.98  o
  14  1  12  1  736.12  482.29  103.99  o
  14  1  -12  1  735.15  753.57  114.89  o
  14  1  12  2  28.77  28.24  71.55  <
  14  1  -12  2  24.03  16.95  65.90  <
  15  1  12  -2  41.16  11.30  60.26  <
  15  1  -12  -2  43.93  -15.06  73.44  <
  15  1  12  -1  5.48  37.66  75.31  <
  15  1  -12  -1  7.35  33.89  84.73  <
  15  1  12  0  1037.29  723.58  130.55  o
  15  1  -12  0  986.64  1147.51  169.31  o
  15  1  12  1  74.86  92.27  71.55  <
  15  1  -12  1  64.99  54.61  84.74  <
  15  1  12  2  69.48  7.53  79.09  <
  15  1  -12  2  69.84  88.50  88.50  <
  16  1  12  -2  25.86  -15.06  77.20  <
  16  1  -12  -2  22.10  30.13  103.56  <
  16  1  12  -1  17.01  -26.36  79.08  <
  16  1  -12  -1  7.28  -1.88  84.73  <
  16  1  12  0  2095.28  1991.31  198.28  o
  16  1  -12  0  2073.99  2249.62  216.38  o
  16  1  12  1  1419.72  1211.92  162.53  o
  16  1  -12  1  1415.06  1144.06  177.67  o
  0  2  12  -2  103.44  160.07  60.23  <
  0  2  -12  -2  98.12  88.51  50.85  <
  0  2  12  -1  3936.86  3893.08  180.05  o
  0  2  -12  -1  3933.50  3832.50  165.29  o
  0  2  12  0  143106.00  129966.00  2689.92  o
  0  2  -12  0  143597.00  133747.00  2574.07  o
  0  2  12  1  26.44  30.13  47.07  <
  0  2  -12  1  27.12  -3.77  39.54  <
  0  2  12  2  91.70  -9.42  48.97  <
  0  2  -12  2  95.40  90.39  48.96  <
  1  2  12  -2  16.98  -18.83  33.89  <
  1  2  -12  -2  17.32  54.60  33.88  <
  1  2  12  -1  492.56  423.92  58.55  o
  1  2  -12  -1  500.92  493.64  56.54  o
  1  2  12  0  1797.80  1717.24  94.75  o
  1  2  -12  0  1627.51  1945.17  88.82  o
  1  2  12  1  455.01  497.35  63.97  o
  1  2  -12  1  455.48  397.50  54.75  o
  1  2  12  2  71.68  116.75  43.28  <
  1  2  -12  2  74.75  90.39  37.65  <
  2  2  12  -2  4.94  -3.77  28.24  <
  2  2  -12  -2  5.32  7.53  26.36  <
  2  2  12  -1  82.49  122.40  39.52  o
  2  2  -12  -1  84.52  26.36  30.15  <
  2  2  12  0  9290.35  9206.92  221.82  o
  2  2  -12  0  9288.92  9043.14  210.42  o
  2  2  12  1  228.90  199.64  49.00  o
  2  2  -12  1  227.10  239.19  45.18  o
  2  2  12  2  2.36  3.77  37.66  <
  2  2  -12  2  2.54  0.00  32.01  <
  3  2  12  -2  55.67  39.54  30.13  <
  3  2  -12  -2  54.36  69.67  32.00  <
  3  2  12  -1  478.24  384.34  56.70  o
  3  2  -12  -1  479.61  448.39  52.82  o
  3  2  12  0  1057.02  1157.55  82.59  o
  3  2  -12  0  1120.63  952.13  72.27  o
  3  2  12  1  118.88  107.34  43.32  <
  3  2  -12  1  100.79  124.29  39.53  o
  3  2  12  2  90.82  135.58  52.70  <
  3  2  -12  2  96.78  65.91  37.68  <
  4  2  12  -2  164.12  150.66  32.03  o
  4  2  -12  -2  164.97  128.06  39.58  o
  4  2  12  -1  773.08  701.09  60.54  o
  4  2  -12  -1  726.89  725.55  65.96  o
  4  2  12  0  2435.66  2046.78  91.25  o
  4  2  -12  0  2298.18  2237.13  89.14  o
  4  2  12  1  219.52  171.38  49.02  o
  4  2  -12  1  227.81  186.45  47.13  o
  4  2  12  2  56.69  33.89  41.43  <
  4  2  -12  2  56.41  43.31  39.55  <
  5  2  12  -2  9.82  -18.83  20.71  <
  5  2  -12  -2  10.51  -7.53  28.24  <
  5  2  12  -1  476.92  523.73  54.52  o
  5  2  -12  -1  473.62  497.35  58.35  o
  5  2  12  0  1975.74  2022.88  103.54  o
  5  2  -12  0  1976.73  2054.96  95.80  o
  5  2  12  1  221.05  233.53  52.72  o
  5  2  -12  1  247.55  175.15  49.05  o
  5  2  12  2  110.88  41.43  43.34  <
  5  2  -12  2  112.95  82.86  48.98  <
  6  2  12  -2  11.40  -37.66  26.35  <
  6  2  -12  -2  10.41  1.88  28.24  <
  6  2  12  -1  73.78  56.49  37.67  <
  6  2  -12  -1  76.09  65.91  39.55  <
  6  2  12  0  633.46  640.61  71.58  o
  6  2  -12  0  606.62  634.94  69.64  o
  6  2  12  1  2.95  -3.77  37.66  <
  6  2  -12  1  2.83  -37.66  33.88  <
  6  2  12  2  33.12  30.13  43.31  <
  6  2  -12  2  33.91  -7.53  43.31  <
  7  2  12  -2  103.83  39.55  35.81  <
  7  2  -12  -2  102.77  69.67  41.45  <
  7  2  12  -1  1805.30  1899.66  95.72  o
  7  2  -12  -1  1780.36  1814.72  99.81  o
  7  2  12  0  2829.96  2656.82  129.38  o
  7  2  -12  0  2745.84  2981.35  125.06  o
  7  2  12  1  484.37  487.90  71.58  o
  7  2  -12  1  478.89  452.10  64.10  o
  7  2  12  2  48.35  47.07  47.07  <
  7  2  -12  2  45.18  82.85  43.29  <
  8  2  12  -2  80.67  94.15  39.54  <
  8  2  -12  -2  79.11  99.80  41.41  <
  8  2  12  -1  2113.05  1939.68  99.05  o
  8  2  -12  -1  2124.65  2069.90  107.83  o
  8  2  12  0  32061.70  30973.40  592.06  o
  8  2  -12  0  32165.60  32253.80  538.26  o
  8  2  12  1  16.53  24.48  43.31  <
  8  2  -12  1  11.44  43.31  45.18  <
  8  2  12  2  56.07  60.26  47.07  <
  8  2  -12  2  61.50  67.79  48.96  <
  9  2  12  -2  11.50  5.65  33.89  <
  9  2  -12  -2  10.45  22.59  37.66  <
  9  2  12  -1  884.71  1015.72  84.40  o
  9  2  -12  -1  954.35  761.37  77.82  o
  9  2  12  0  975.71  1134.51  99.42  o
  9  2  -12  0  1119.61  1055.50  101.96  o
  9  2  12  1  258.57  156.32  56.59  <
  9  2  -12  1  248.82  325.81  69.59  o
  9  2  12  2  95.03  65.91  50.85  <
  9  2  -12  2  80.04  16.95  45.21  <
  10  2  12  -2  59.31  13.18  35.79  <
  10  2  -12  -2  65.23  47.08  43.31  <
  10  2  12  -1  36.31  58.37  41.42  <
  10  2  -12  -1  25.69  45.19  43.30  <
  10  2  12  0  7659.88  7669.21  219.79  o
  10  2  -12  0  7725.59  7811.81  243.80  o
  10  2  12  1  558.02  589.62  82.83  o
  10  2  -12  1  566.59  544.42  84.81  o
  10  2  12  2  32.62  15.06  52.72  <
  10  2  -12  2  38.31  52.72  56.49  <
  11  2  12  -2  32.55  26.36  45.19  <
  11  2  -12  -2  32.16  15.06  47.08  <
  11  2  12  -1  910.66  944.06  92.24  o
  11  2  -12  -1  942.85  951.62  107.39  o
  11  2  12  0  1108.46  1021.47  100.13  o
  11  2  -12  0  1105.17  1029.01  120.79  o
  11  2  12  1  262.54  173.26  64.11  <
  11  2  -12  1  254.90  252.36  73.45  o
  11  2  12  2  30.82  96.03  58.35  <
  11  2  -12  2  33.90  22.60  58.37  <
  12  2  12  -2  60.14  16.95  48.96  <
  12  2  -12  -2  57.90  -11.30  50.84  <
  12  2  12  -1  280.48  282.50  77.21  o
  12  2  -12  -1  259.78  258.01  71.57  o
  12  2  12  0  6239.59  6604.05  222.37  o
  12  2  -12  0  6320.79  6568.52  249.98  o
  12  2  12  1  145.64  129.93  62.15  <
  12  2  -12  1  151.94  101.69  69.70  <
  12  2  12  2  74.42  156.29  69.63  <
  12  2  -12  2  74.66  45.19  65.91  <
  13  2  12  -2  25.70  5.65  60.25  <
  13  2  -12  -2  29.08  96.03  64.00  <
  13  2  12  -1  881.91  668.89  102.16  o
  13  2  -12  -1  878.20  631.20  100.33  o
  13  2  12  0  681.85  606.61  103.74  o
  13  2  -12  0  626.85  691.35  105.38  o
  13  2  12  1  211.63  180.79  75.35  <
  13  2  -12  1  229.67  278.72  80.94  o
  13  2  12  2  119.64  94.15  71.57  <
  13  2  -12  2  129.86  79.09  79.11  <
  14  2  12  -2  25.04  3.77  58.37  <
  14  2  -12  -2  19.57  26.36  73.43  <
  14  2  12  -1  194.86  120.52  81.01  <
  14  2  -12  -1  207.48  278.71  80.92  o
  14  2  12  0  9473.13  9135.50  330.56  o
  14  2  -12  0  9540.94  9864.10  327.38  o
  14  2  12  1  188.77  13.18  71.61  <
  14  2  -12  1  174.96  124.29  79.12  <
  14  2  12  2  18.68  -39.54  62.13  <
  14  2  -12  2  15.14  50.84  73.43  <
  15  2  12  -2  181.00  64.03  77.25  <
  15  2  -12  -2  170.13  150.65  96.05  <
  15  2  12  -1  937.52  1019.34  146.82  o
  15  2  -12  -1  860.68  1070.15  165.46  o
  15  2  12  0  1315.83  883.91  147.81  o
  15  2  -12  0  1244.12  1181.63  177.26  o
  15  2  12  1  90.82  43.31  107.34  <
  15  2  -12  1  80.60  69.67  84.74  <
  16  2  12  -2  6.76  60.25  86.61  <
  16  2  -12  -2  6.03  65.90  97.90  <
  0  3  12  -2  189.98  214.70  67.78  o
  0  3  -12  -2  194.65  180.80  56.51  o
  0  3  12  -1  1937.33  2022.89  135.53  o
  0  3  -12  -1  1890.20  1732.20  119.51  o
  0  3  12  0  525.35  480.40  86.73  o
  0  3  -12  0  338.93  357.88  79.09  o
  0  3  12  1  1425.82  1512.24  124.17  o
  0  3  -12  1  1497.72  1438.80  120.88  o
  0  3  12  2  121.26  -9.42  65.93  <
  0  3  -12  2  114.92  32.01  48.99  <
  1  3  12  -2  118.14  195.85  47.00  o
  1  3  -12  -2  116.09  22.60  30.17  <
  1  3  12  -1  2104.54  2136.50  97.96  o
  1  3  -12  -1  2051.48  2032.57  90.70  o
  1  3  12  0  2188.50  2566.69  112.96  o
  1  3  -12  0  2434.36  2187.92  101.53  o
  1  3  12  1  936.27  972.48  92.25  o
  1  3  -12  1  896.52  978.09  77.00  o
  1  3  12  2  119.75  128.05  54.60  <
  1  3  -12  2  122.66  60.26  39.58  <
  2  3  12  -2  5.32  -26.36  33.89  <
  2  3  -12  -2  5.06  -1.88  30.13  <
  2  3  12  -1  5.39  -5.65  35.77  <
  2  3  -12  -1  4.78  -20.71  28.24  <
  2  3  12  0  33.71  71.55  45.18  <
  2  3  -12  0  40.18  13.18  33.90  <
  2  3  12  1  6.50  37.66  45.18  <
  2  3  -12  1  4.12  -52.72  30.11  <
  2  3  12  2  1.89  -16.95  43.31  <
  2  3  -12  2  1.86  -16.95  33.89  <
  3  3  12  -2  90.59  82.86  41.43  <
  3  3  -12  -2  88.71  60.26  35.79  <
  3  3  12  -1  1070.83  1200.80  97.61  o
  3  3  -12  -1  1142.79  1061.39  77.60  o
  3  3  12  0  9704.19  9641.89  261.16  o
  3  3  -12  0  9329.27  9457.60  220.97  o
  3  3  12  1  438.15  342.83  69.83  o
  3  3  -12  1  450.94  501.07  62.06  o
  3  3  12  2  106.94  97.92  50.85  <
  3  3  -12  2  112.00  112.99  48.96  <
  4  3  12  -2  51.96  41.43  39.55  <
  4  3  -12  -2  53.84  58.37  37.66  <
  4  3  12  -1  1787.90  1827.99  97.90  o
  4  3  -12  -1  1812.47  1722.39  91.02  o
  4  3  12  0  17565.50  17483.40  359.40  o
  4  3  -12  0  17785.20  18382.30  371.78  o
  4  3  12  1  3404.76  3534.33  140.82  o
  4  3  -12  1  3382.38  3345.36  140.02  o
  4  3  12  2  75.90  60.26  45.20  <
  4  3  -12  2  60.00  50.84  48.96  <
  5  3  12  -2  65.34  77.20  41.42  <
  5  3  -12  -2  60.77  35.78  37.67  <
  5  3  12  -1  1048.93  1044.25  86.72  o
  5  3  -12  -1  1043.60  782.24  93.01  o
  5  3  12  0  7160.60  7620.33  209.94  o
  5  3  -12  0  7159.29  7354.87  233.49  o
  5  3  12  1  550.22  561.39  73.45  o
  5  3  -12  1  590.69  649.95  86.55  o
  5  3  12  2  172.71  90.39  49.02  <
  5  3  -12  2  178.83  114.87  54.65  <
  6  3  12  -2  17.28  26.36  41.42  <
  6  3  -12  -2  16.04  56.49  41.41  <
  6  3  12  -1  484.72  452.11  67.88  o
  6  3  -12  -1  477.73  491.67  69.67  o
  6  3  12  0  742.73  872.39  93.91  o
  6  3  -12  0  734.43  602.94  85.06  o
  6  3  12  1  360.23  355.98  67.81  o
  6  3  -12  1  366.37  318.31  69.75  o
  6  3  12  2  24.12  50.84  48.95  <
  6  3  -12  2  24.21  -7.53  47.07  <
  7  3  12  -2  102.55  94.15  45.20  <
  7  3  -12  -2  101.37  52.73  41.45  <
  7  3  12  -1  1262.36  1217.81  101.94  o
  7  3  -12  -1  1224.13  1347.83  95.69  o
  7  3  12  0  4463.38  4616.73  180.46  o
  7  3  -12  0  4598.37  4895.24  179.41  o
  7  3  12  1  428.82  335.28  69.82  o
  7  3  -12  1  416.15  418.15  73.46  o
  7  3  12  2  92.41  84.74  64.03  <
  7  3  -12  2  100.81  73.44  56.50  <
  8  3  12  -2  134.56  48.96  47.12  <
  8  3  -12  -2  132.56  48.96  43.35  <
  8  3  12  -1  174.18  116.76  50.89  <
  8  3  -12  -1  152.15  161.95  50.84  o
  8  3  12  0  1831.35  1848.20  122.52  o
  8  3  -12  0  1831.80  2114.11  113.71  o
  8  3  12  1  2472.19  2694.38  155.61  o
  8  3  -12  1  2459.83  2390.57  143.71  o
  8  3  12  2  83.04  39.54  60.27  <
  8  3  -12  2  74.33  -33.89  50.84  <
  9  3  12  -2  72.23  120.51  48.93  <
  9  3  -12  -2  72.42  82.85  47.07  <
  9  3  12  -1  186.08  133.71  54.65  <
  9  3  -12  -1  169.63  161.95  58.38  <
  9  3  12  0  1634.54  1425.43  125.11  o
  9  3  -12  0  1600.79  1557.37  118.93  o
  9  3  12  1  454.88  403.09  82.95  o
  9  3  -12  1  441.18  399.32  84.81  o
  9  3  12  2  90.72  28.25  58.39  <
  9  3  -12  2  87.28  135.58  69.65  <
  10  3  12  -2  17.13  -9.41  41.42  <
  10  3  -12  -2  15.66  47.07  50.83  <
  10  3  12  -1  101.49  1.88  52.74  <
  10  3  -12  -1  129.09  58.38  54.64  <
  10  3  12  0  40.27  -5.65  48.96  <
  10  3  -12  0  8.68  30.13  52.72  <
  10  3  12  1  142.29  212.79  77.16  <
  10  3  -12  1  144.03  195.84  69.64  <
  10  3  12  2  19.10  -7.53  62.14  <
  10  3  -12  2  20.35  77.20  64.01  <
  11  3  12  -2  73.29  37.66  52.73  <
  11  3  -12  -2  72.48  52.72  52.73  <
  11  3  12  -1  677.58  589.66  96.23  o
  11  3  -12  -1  634.81  616.02  94.23  o
  11  3  12  0  2569.09  2809.27  164.97  o
  11  3  -12  0  2518.09  2922.35  162.29  o
  11  3  12  1  220.92  367.23  92.14  o
  11  3  -12  1  249.41  225.99  75.35  <
  11  3  12  2  90.41  99.80  69.67  <
  11  3  -12  2  88.41  -9.42  65.91  <
  12  3  12  -2  23.51  -20.71  50.84  <
  12  3  -12  -2  26.80  -20.71  54.60  <
  12  3  12  -1  1057.57  1089.20  122.41  o
  12  3  -12  -1  1040.97  981.78  124.50  o
  12  3  12  0  1411.68  1277.96  137.94  o
  12  3  -12  0  1513.50  1540.09  141.30  o
  12  3  12  1  1269.75  1068.60  134.27  o
  12  3  -12  1  1301.91  1209.98  132.16  o
  12  3  12  2  5.32  -71.55  65.89  <
  12  3  -12  2  5.02  30.13  73.43  <
  13  3  12  -2  57.12  1.88  60.26  <
  13  3  -12  -2  55.53  28.24  65.91  <
  13  3  12  -1  207.87  112.99  73.49  <
  13  3  -12  -1  193.81  199.62  82.86  <
  13  3  12  0  3881.82  3938.93  205.53  o
  13  3  -12  0  4080.78  4264.33  221.92  o
  13  3  12  1  483.52  404.96  96.15  o
  13  3  -12  1  492.14  420.03  107.44  o
  13  3  12  2  76.61  -28.24  79.09  <
  13  3  -12  2  78.54  173.24  90.34  <
  14  3  12  -2  3.08  11.30  71.55  <
  14  3  -12  -2  3.95  35.78  75.31  <
  14  3  12  -1  485.76  452.05  101.75  o
  14  3  -12  -1  472.17  391.77  99.92  o
  14  3  12  0  635.52  506.73  107.55  o
  14  3  -12  0  624.96  634.82  118.66  o
  15  3  12  -2  22.37  22.59  97.91  <
  15  3  -12  -2  19.13  -90.38  84.71  <
  0  4  12  -2  5.67  7.53  43.31  <
  0  4  -12  -2  9.58  -13.18  45.19  <
  0  4  12  -1  2289.72  2164.46  147.69  o
  0  4  -12  -1  2287.14  2113.51  138.48  o
  0  4  12  0  23252.20  22597.00  713.21  o
  0  4  -12  0  23767.80  22255.30  590.93  o
  0  4  12  1  166.87  107.34  79.12  <
  0  4  -12  1  145.84  30.13  58.41  <
  0  4  12  2  37.90  116.74  84.71  <
  0  4  -12  2  40.98  -18.83  62.14  <
  1  4  12  -2  74.63  22.60  35.79  <
  1  4  -12  -2  79.90  86.62  37.66  <
  1  4  12  -1  178.05  143.12  52.76  <
  1  4  -12  -1  180.70  180.79  45.20  o
  1  4  12  0  5098.35  4935.26  184.67  o
  1  4  -12  0  4713.43  4630.99  155.72  o
  1  4  12  1  1869.94  1836.89  132.14  o
  1  4  -12  1  1872.61  2066.97  108.43  o
  1  4  12  2  52.17  -13.18  50.84  <
  1  4  -12  2  49.17  97.91  47.05  <
  2  4  12  -2  4.17  -33.89  39.54  <
  2  4  -12  -2  4.27  -3.77  30.13  <
  2  4  12  -1  145.65  101.69  52.75  <
  2  4  -12  -1  151.27  137.47  43.32  o
  2  4  12  0  358.74  254.27  60.41  o
  2  4  -12  0  356.95  307.01  54.70  o
  2  4  12  1  137.42  148.77  58.37  <
  2  4  -12  1  137.75  56.49  45.23  <
  2  4  12  2  2.58  24.48  56.48  <
  2  4  -12  2  2.51  30.13  48.95  <
  3  4  12  -2  127.76  103.57  50.86  <
  3  4  -12  -2  124.22  65.91  37.70  <
  3  4  12  -1  255.46  237.30  65.93  o
  3  4  -12  -1  261.71  205.29  49.04  o
  3  4  12  0  2917.23  3250.77  152.98  o
  3  4  -12  0  3215.09  2866.42  141.70  o
  3  4  12  1  1777.06  1887.61  125.91  o
  3  4  -12  1  1804.28  1785.82  116.99  o
  3  4  12  2  70.45  209.01  73.35  <
  3  4  -12  2  75.46  32.01  50.85  <
  4  4  12  -2  46.15  97.91  43.28  <
  4  4  -12  -2  49.64  90.38  43.29  <
  4  4  12  -1  1114.30  1081.89  96.22  o
  4  4  -12  -1  1083.79  1066.78  103.71  o
  4  4  12  0  5148.00  5074.59  184.01  o
  4  4  -12  0  4879.17  5232.24  198.02  o
  4  4  12  1  9.46  13.18  52.72  <
  4  4  -12  1  11.37  -3.77  50.84  <
  4  4  12  2  74.88  80.97  60.25  <
  4  4  -12  2  69.82  71.55  56.49  <
  5  4  12  -2  56.07  39.54  45.20  <
  5  4  -12  -2  53.92  -1.88  43.31  <
  5  4  12  -1  193.09  258.00  62.08  o
  5  4  -12  -1  194.07  188.32  62.15  o
  5  4  12  0  1357.19  1596.66  114.14  o
  5  4  -12  0  1453.91  1427.13  116.97  o
  5  4  12  1  1319.24  1251.59  118.94  o
  5  4  -12  1  1324.39  1351.50  116.78  o
  5  4  12  2  66.78  41.43  58.38  <
  5  4  -12  2  69.15  58.37  60.26  <
  6  4  12  -2  4.69  -15.06  37.66  <
  6  4  -12  -2  4.95  5.65  45.19  <
  6  4  12  -1  76.09  86.62  48.95  <
  6  4  -12  -1  77.31  64.02  54.61  <
  6  4  12  0  1230.34  1345.77  129.74  o
  6  4  -12  0  1202.44  1294.85  122.26  o
  6  4  12  1  1.12  -5.65  52.72  <
  6  4  -12  1  0.95  -7.53  52.72  <
  6  4  12  2  16.83  -47.07  54.60  <
  6  4  -12  2  18.61  -13.18  64.02  <
  7  4  12  -2  73.92  65.91  52.73  <
  7  4  -12  -2  79.32  48.96  47.09  <
  7  4  12  -1  799.54  774.39  103.68  o
  7  4  -12  -1  794.03  719.75  90.60  o
  7  4  12  0  2751.21  2675.94  162.63  o
  7  4  -12  0  2504.68  2660.30  159.70  o
  7  4  12  1  1661.52  1877.80  144.45  o
  7  4  -12  1  1719.75  1561.14  134.38  o
  7  4  12  2  61.65  41.43  65.91  <
  7  4  -12  2  57.52  99.80  65.89  <
  8  4  12  -2  15.09  26.36  52.72  <
  8  4  -12  -2  20.27  35.78  52.72  <
  8  4  12  -1  1120.85  1098.74  120.67  o
  8  4  -12  -1  1140.36  897.10  108.01  o
  8  4  12  0  2268.29  2493.67  159.43  o
  8  4  -12  0  2392.49  2490.14  156.17  o
  8  4  12  1  12.60  37.66  62.13  <
  8  4  -12  1  12.98  3.77  58.37  <
  8  4  12  2  84.28  43.31  69.68  <
  8  4  -12  2  85.05  88.50  67.79  <
  9  4  12  -2  8.98  -7.53  52.72  <
  9  4  -12  -2  8.79  56.49  52.71  <
  9  4  12  -1  555.24  418.19  88.73  o
  9  4  -12  -1  563.09  599.03  96.01  o
  9  4  12  0  2649.56  3107.48  179.12  o
  9  4  -12  0  2710.27  2913.28  170.80  o
  9  4  12  1  1491.46  1572.09  154.35  o
  9  4  -12  1  1510.14  1285.59  141.95  o
  9  4  12  2  50.07  169.47  80.92  <
  9  4  -12  2  47.87  45.19  73.44  <
  10  4  12  -2  3.18  13.18  54.60  <
  10  4  -12  -2  3.30  3.77  54.60  <
  10  4  12  -1  139.67  33.90  65.94  <
  10  4  -12  -1  116.00  165.71  69.64  <
  10  4  12  0  3171.08  3582.27  196.26  o
  10  4  -12  0  3186.58  3412.44  221.81  o
  10  4  12  1  586.52  395.58  101.95  o
  10  4  -12  1  592.18  546.28  101.79  o
  10  4  12  2  26.19  -62.14  67.77  <
  10  4  -12  2  25.92  84.73  80.95  <
  11  4  12  -2  56.02  -11.30  65.91  <
  11  4  -12  -2  52.39  41.43  54.61  <
  11  4  12  -1  1203.05  1334.29  142.91  o
  11  4  -12  -1  1235.95  1127.02  128.42  o
  11  4  12  0  2439.03  2584.19  180.54  o
  11  4  -12  0  2488.18  2608.80  174.96  o
  11  4  12  1  1346.78  1504.00  161.71  o
  11  4  -12  1  1331.47  1473.83  157.97  o
  12  4  12  -2  11.53  24.48  64.02  <
  12  4  -12  -2  11.39  32.01  64.02  <
  12  4  12  -1  735.11  551.98  109.54  o
  12  4  -12  -1  691.64  742.23  116.71  o
  12  4  12  0  179.67  233.51  92.24  <
  12  4  -12  0  211.57  111.11  81.02  <
  13  4  12  -2  7.70  -7.53  67.78  <
  13  4  -12  -2  6.91  11.30  69.67  <
  13  4  12  -1  450.38  273.11  94.34  <
  13  4  -12  -1  431.68  387.99  103.64  o
  14  4  12  -2  18.54  13.18  75.32  <
  14  4  -12  -2  17.86  7.53  82.85  <
  0  5  12  -2  133.25  41.43  67.82  <
  0  5  -12  -2  132.85  26.36  50.88  <
  0  5  12  -1  1528.70  1596.85  186.49  o
  0  5  -12  -1  1511.44  1391.33  143.60  o
  0  5  12  0  110.36  118.63  94.15  <
  0  5  -12  0  129.99  41.43  69.70  <
  0  5  12  1  47.16  126.16  105.43  <
  0  5  -12  1  50.86  26.36  67.79  <
  0  5  12  2  87.43  26.36  88.51  <
  0  5  -12  2  82.99  -41.43  92.27  <
  1  5  12  -2  55.98  37.66  52.73  <
  1  5  -12  -2  55.19  22.60  37.67  <
  1  5  12  -1  2014.48  2021.85  139.54  o
  1  5  -12  -1  2036.46  1974.74  107.81  o
  1  5  12  0  382.19  410.59  90.37  o
  1  5  -12  0  448.66  374.83  75.45  o
  1  5  12  1  739.58  629.24  109.45  o
  1  5  -12  1  703.56  715.88  96.05  o
  1  5  12  2  288.39  338.99  112.96  <
  1  5  -12  2  283.10  222.23  75.38  <
  2  5  12  -2  19.61  -86.61  41.39  <
  2  5  -12  -2  17.99  -7.53  37.66  <
  2  5  12  -1  9.91  82.85  62.12  <
  2  5  -12  -1  12.01  -7.53  48.96  <
  2  5  12  0  145.89  111.10  71.57  <
  2  5  -12  0  152.67  84.74  58.41  <
  2  5  12  1  107.73  69.67  69.68  <
  2  5  -12  1  106.98  45.19  60.28  <
  2  5  12  2  14.53  -45.19  71.54  <
  2  5  -12  2  15.13  -15.06  60.25  <
  3  5  12  -2  87.25  30.13  48.97  <
  3  5  -12  -2  82.99  101.68  52.72  <
  3  5  12  -1  2079.86  2012.48  134.19  o
  3  5  -12  -1  2090.16  2046.44  126.56  o
  3  5  12  0  3525.75  3304.18  174.85  o
  3  5  -12  0  3460.56  3349.32  164.87  o
  3  5  12  1  487.83  727.06  118.32  o
  3  5  -12  1  471.69  314.55  81.18  o
  3  5  12  2  403.85  310.77  94.26  o
  3  5  -12  2  407.63  329.60  84.84  o
  4  5  12  -2  56.96  28.24  45.20  <
  4  5  -12  -2  50.90  71.55  54.60  <
  4  5  12  -1  1583.15  1562.92  118.85  o
  4  5  -12  -1  1601.67  1732.62  123.96  o
  4  5  12  0  1599.31  1738.18  140.95  o
  4  5  -12  0  1640.51  1585.53  135.91  o
  4  5  12  1  41.81  20.71  69.67  <
  4  5  -12  1  37.88  -22.60  58.37  <
  4  5  12  2  138.03  56.49  79.11  <
  4  5  -12  2  121.31  -9.42  75.34  <
  5  5  12  -2  64.07  60.26  54.61  <
  5  5  -12  -2  60.01  67.79  52.72  <
  5  5  12  -1  1572.64  1583.61  130.05  o
  5  5  -12  -1  1519.97  1728.70  123.68  o
  5  5  12  0  3675.96  3748.07  186.55  o
  5  5  -12  0  3673.36  3967.09  191.02  o
  5  5  12  1  555.72  497.29  99.91  o
  5  5  -12  1  630.34  555.71  116.89  o
  5  5  12  2  347.08  271.20  94.23  <
  5  5  -12  2  353.34  310.76  105.50  <
  6  5  12  -2  15.69  -35.78  50.83  <
  6  5  -12  -2  15.80  -15.06  54.60  <
  6  5  12  -1  54.79  -7.53  56.49  <
  6  5  -12  -1  52.70  -28.24  60.25  <
  6  5  12  0  64.64  129.93  71.53  <
  6  5  -12  0  69.05  77.20  65.90  <
  6  5  12  1  87.56  60.26  77.21  <
  6  5  -12  1  92.39  118.63  75.31  <
  6  5  12  2  5.72  -45.19  84.73  <
  6  5  -12  2  5.85  28.24  77.20  <
  7  5  12  -2  92.22  124.28  69.66  <
  7  5  -12  -2  82.61  90.38  62.14  <
  7  5  12  -1  1533.17  1900.19  157.25  o
  7  5  -12  -1  1512.79  1660.75  144.71  o
  7  5  12  0  2236.74  2544.24  176.15  o
  7  5  -12  0  2242.10  2327.36  163.77  o
  7  5  12  1  416.08  348.44  99.89  o
  7  5  -12  1  431.30  286.29  92.43  o
  8  5  12  -2  88.56  26.36  62.15  <
  8  5  -12  -2  81.58  56.49  58.38  <
  8  5  12  -1  823.51  885.51  126.12  o
  8  5  -12  -1  796.94  900.56  122.27  o
  8  5  12  0  77.72  22.60  73.44  <
  8  5  -12  0  122.79  50.84  69.69  <
  8  5  12  1  102.49  33.89  80.98  <
  8  5  -12  1  102.36  79.09  84.74  <
  9  5  12  -2  137.04  118.63  69.68  <
  9  5  -12  -2  142.21  122.40  73.45  <
  9  5  12  -1  1057.96  1111.77  143.10  o
  9  5  -12  -1  1027.72  930.85  124.57  o
  9  5  12  0  610.99  448.32  107.57  o
  9  5  -12  0  463.26  585.77  112.85  o
  10  5  12  -2  20.69  41.42  71.55  <
  10  5  -12  -2  18.51  116.74  73.40  <
  10  5  12  -1  132.38  122.40  80.98  <
  10  5  -12  -1  139.92  71.56  73.46  <
  11  5  12  -2  154.22  109.22  79.11  <
  11  5  -12  -2  158.63  116.75  75.34  <
  11  5  12  -1  1406.41  1341.96  162.24  o
  11  5  -12  -1  1335.91  1392.78  156.29  o
  12  5  12  -2  38.19  11.30  77.20  <
  12  5  -12  -2  40.07  54.61  82.85  <
  0  6  12  -2  119.86  33.90  86.64  <
  0  6  -12  -2  126.39  35.78  71.58  <
  0  6  12  -1  797.47  812.01  167.66  o
  0  6  -12  -1  730.23  619.81  150.84  o
  0  6  12  0  2781.20  2865.86  269.56  o
  0  6  -12  0  3175.25  2398.65  247.57  o
  1  6  12  -2  102.09  103.57  71.55  <
  1  6  -12  -2  106.62  84.74  56.50  <
  1  6  12  -1  791.21  676.36  113.23  o
  1  6  -12  -1  795.89  770.56  105.55  o
  1  6  12  0  1484.99  1555.05  195.88  o
  1  6  -12  0  1424.63  1534.25  135.38  o
  2  6  12  -2  0.96  -37.66  60.25  <
  2  6  -12  -2  1.26  -11.30  48.95  <
  2  6  12  -1  61.60  47.07  82.85  <
  2  6  -12  -1  67.92  28.24  62.15  <
  2  6  12  0  452.23  327.73  99.95  o
  2  6  -12  0  446.76  290.06  92.45  o
  3  6  12  -2  159.02  237.27  84.69  <
  3  6  -12  -2  150.74  52.73  60.30  <
  3  6  12  -1  843.30  774.35  122.58  o
  3  6  -12  -1  834.67  729.13  113.23  o
  3  6  12  0  860.58  1168.11  152.03  o
  3  6  -12  0  995.53  904.43  126.42  o
  4  6  12  -2  161.50  -1.88  62.18  <
  4  6  -12  -2  165.39  9.42  58.42  <
  4  6  12  -1  275.11  148.78  82.94  <
  4  6  -12  -1  276.06  295.67  84.73  o
  4  6  12  0  7886.56  8017.00  317.23  o
  4  6  -12  0  7667.52  7072.95  325.40  o
  5  6  12  -2  141.98  33.90  64.06  <
  5  6  -12  -2  133.41  111.10  73.45  <
  5  6  12  -1  1083.32  1238.03  150.43  o
  5  6  -12  -1  1102.32  1019.46  147.14  o
  6  6  12  -2  17.29  92.26  71.53  <
  6  6  -12  -2  17.90  26.36  65.90  <
  6  6  12  -1  68.24  62.14  79.09  <
  6  6  -12  -1  65.77  -3.77  71.56  <
  7  6  12  -2  60.64  37.66  75.32  <
  7  6  -12  -2  66.72  97.91  73.43  <
  7  6  12  -1  1137.60  1249.37  150.51  o
  7  6  -12  -1  1157.39  1162.70  143.21  o
  8  6  12  -2  224.00  82.86  79.16  <
  8  6  -12  -2  237.38  120.53  81.04  <
  9  6  12  -2  44.60  60.25  79.08  <
  9  6  -12  -2  50.03  -64.02  69.66  <
  0  7  12  -2  86.66  -218.43  127.97  <
  0  7  -12  -2  92.34  -120.51  107.31  <
  1  7  12  -2  14.20  -15.06  90.38  <
  1  7  -12  -2  14.08  67.78  75.31  <
  1  0  13  1  44.18  32.01  24.48  <
  1  0  -13  1  34.79  71.55  30.11  <
  1  0  13  2  4.78  -24.48  26.36  <
  1  0  -13  2  5.36  0.00  26.36  <
  2  0  13  0  88861.60  83733.90  1415.79  o
  2  0  -13  0  88772.30  85810.40  1356.85  o
  2  0  13  1  3318.06  3214.74  84.27  o
  2  0  -13  1  3312.53  3511.60  100.31  o
  2  0  13  2  24.08  1.88  30.13  <
  2  0  -13  2  22.54  -15.06  26.36  <
  3  0  13  1  39.61  33.89  26.36  <
  3  0  -13  1  37.24  58.37  35.77  <
  3  0  13  2  35.33  -11.30  28.25  <
  3  0  -13  2  35.14  39.54  30.13  <
  4  0  13  0  4082.66  3917.14  192.04  o
  4  0  -13  0  4088.17  4096.94  149.43  o
  4  0  13  1  4.90  3.77  28.24  <
  4  0  -13  1  8.43  1.88  32.01  <
  4  0  13  2  3.94  -15.06  22.59  <
  4  0  -13  2  2.31  33.89  35.77  <
  5  0  13  1  209.61  184.57  48.99  o
  5  0  -13  1  211.04  210.93  37.67  o
  5  0  13  2  1.44  13.18  30.13  <
  5  0  -13  2  2.01  -22.59  28.24  <
  6  0  13  0  51042.20  48318.70  1067.14  o
  6  0  -13  0  50718.90  46994.80  865.15  o
  6  0  13  1  2169.66  2144.14  102.07  o
  6  0  -13  1  2149.44  2119.56  90.78  o
  6  0  13  2  5.47  -11.30  30.13  <
  6  0  -13  2  4.76  1.88  30.13  <
  7  0  13  1  113.36  64.03  37.69  <
  7  0  -13  1  129.96  90.39  37.69  <
  7  0  13  2  47.46  35.78  39.55  <
  7  0  -13  2  49.94  37.66  37.66  <
  8  0  13  0  2342.17  2230.83  157.08  o
  8  0  -13  0  2369.58  2308.27  126.76  o
  8  0  13  1  67.78  33.89  37.67  <
  8  0  -13  1  58.16  80.97  41.42  <
  8  0  13  2  65.23  -1.88  37.67  <
  8  0  -13  2  67.37  -3.77  39.55  <
  9  0  13  1  157.59  156.30  50.85  o
  9  0  -13  1  134.51  161.95  52.71  o
  9  0  13  2  16.63  77.20  47.05  <
  9  0  -13  2  17.87  26.36  41.42  <
  10  0  13  0  55582.80  53522.80  1358.73  o
  10  0  -13  0  55643.60  53683.80  1183.00  o
  10  0  13  1  2181.93  2341.27  119.93  o
  10  0  -13  1  2197.19  2341.30  123.81  o
  10  0  13  2  2.15  -39.54  41.42  <
  10  0  -13  2  1.88  47.07  50.83  <
  11  0  13  1  144.02  111.10  52.75  <
  11  0  -13  1  136.51  118.64  54.62  <
  11  0  13  2  58.78  43.31  48.96  <
  11  0  -13  2  62.92  45.19  52.73  <
  12  0  13  0  4265.42  4536.62  272.80  o
  12  0  -13  0  4185.36  4171.68  270.23  o
  12  0  13  1  5.75  48.96  48.95  <
  12  0  -13  1  12.40  41.42  58.37  <
  12  0  13  2  10.72  -20.71  47.07  <
  12  0  -13  2  7.20  -20.71  54.60  <
  13  0  13  1  483.36  359.77  75.52  o
  13  0  -13  1  512.03  265.59  90.67  <
  13  0  13  2  40.34  16.95  56.49  <
  13  0  -13  2  41.56  26.36  60.26  <
  14  0  13  0  5624.62  5668.85  325.03  o
  14  0  -13  0  5577.03  5963.62  515.03  o
  14  0  13  1  274.21  190.21  69.75  <
  14  0  -13  1  253.17  152.54  124.33  <
  14  0  13  2  10.10  -5.65  62.14  <
  14  0  -13  2  10.43  92.26  86.60  <
  15  0  13  1  216.02  222.22  82.86  <
  15  0  -13  1  215.16  116.76  107.38  <
  15  0  13  2  69.38  5.65  75.33  <
  15  0  -13  2  67.21  88.50  99.79  <
  16  0  13  0  81.94  128.04  156.28  <
  16  0  -13  0  131.89  -15.06  150.65  <
  16  0  13  1  56.71  75.32  141.22  <
  1  1  13  -2  38.27  18.83  24.48  <
  1  1  -13  -2  39.96  3.77  20.72  <
  1  1  13  -1  1263.66  1318.32  58.14  o
  1  1  -13  -1  1279.07  1344.75  69.45  o
  1  1  13  0  1177.98  1065.44  81.49  o
  1  1  -13  0  1147.15  1110.65  84.98  o
  1  1  13  1  467.12  587.80  69.45  o
  1  1  -13  1  451.48  433.31  54.67  o
  1  1  13  2  55.61  65.91  41.42  <
  1  1  -13  2  56.03  24.48  33.90  <
  2  1  13  -2  193.71  184.57  32.03  o
  2  1  -13  -2  201.42  165.74  39.59  o
  2  1  13  -1  43.26  80.97  26.34  o
  2  1  -13  -1  49.86  65.91  30.12  <
  2  1  13  0  7614.61  7390.99  196.18  o
  2  1  -13  0  7646.86  7427.41  169.90  o
  2  1  13  1  1991.79  2117.74  99.34  o
  2  1  -13  1  1964.85  1853.43  89.34  o
  2  1  13  2  36.15  7.53  35.78  <
  2  1  -13  2  42.35  -11.30  32.01  <
  3  1  13  -2  53.51  1.88  24.49  <
  3  1  -13  -2  53.85  37.66  30.13  <
  3  1  13  -1  1360.45  1307.07  73.81  o
  3  1  -13  -1  1351.44  1301.40  70.04  o
  3  1  13  0  5003.10  4993.83  136.49  o
  3  1  -13  0  4982.23  5096.00  133.36  o
  3  1  13  1  177.80  295.68  54.47  o
  3  1  -13  1  207.09  150.67  39.61  o
  3  1  13  2  36.40  -5.65  33.90  <
  3  1  -13  2  35.31  45.19  35.77  <
  4  1  13  -2  28.67  7.53  33.90  <
  4  1  -13  -2  28.01  -56.49  28.22  <
  4  1  13  -1  206.15  252.37  35.70  o
  4  1  -13  -1  207.57  158.20  47.13  o
  4  1  13  0  608.24  589.77  50.93  o
  4  1  -13  0  563.45  553.94  62.20  o
  4  1  13  1  133.32  193.97  41.36  o
  4  1  -13  1  123.58  112.99  43.32  <
  4  1  13  2  33.86  0.00  30.13  <
  4  1  -13  2  33.83  -22.60  35.77  <
  5  1  13  -2  34.18  -52.72  28.22  <
  5  1  -13  -2  35.12  15.06  26.37  <
  5  1  13  -1  1831.18  2020.87  89.47  o
  5  1  -13  -1  1817.82  1954.80  85.99  o
  5  1  13  0  3315.79  3322.64  96.33  o
  5  1  -13  0  3301.03  3407.63  112.55  o
  5  1  13  1  277.95  224.13  41.52  o
  5  1  -13  1  287.62  186.46  45.33  o
  5  1  13  2  44.57  33.89  39.55  <
  5  1  -13  2  41.64  20.71  35.78  <
  6  1  13  -2  140.89  145.01  43.31  o
  6  1  -13  -2  138.31  71.56  32.07  <
  6  1  13  -1  59.28  20.71  35.79  <
  6  1  -13  -1  62.32  54.61  35.78  <
  6  1  13  0  2147.21  2168.50  92.34  o
  6  1  -13  0  2098.99  2109.88  92.41  o
  6  1  13  1  862.75  844.31  79.21  o
  6  1  -13  1  907.90  970.62  75.18  o
  6  1  13  2  46.65  33.89  41.43  <
  6  1  -13  2  47.66  22.60  35.78  <
  7  1  13  -2  64.57  62.14  39.54  <
  7  1  -13  -2  66.64  11.30  28.26  <
  7  1  13  -1  809.02  657.69  72.01  o
  7  1  -13  -1  781.92  793.35  67.80  o
  7  1  13  0  1607.98  1605.01  94.31  o
  7  1  -13  0  1640.41  1620.15  94.40  o
  7  1  13  1  353.90  363.53  58.37  o
  7  1  -13  1  355.99  303.25  56.59  o
  7  1  13  2  68.13  37.66  43.32  <
  7  1  -13  2  68.41  22.60  41.44  <
  8  1  13  -2  3.30  -24.48  33.89  <
  8  1  -13  -2  4.61  0.00  32.01  <
  8  1  13  -1  110.82  97.92  47.08  <
  8  1  -13  -1  127.73  133.70  43.31  o
  8  1  13  0  7974.87  8086.03  228.58  o
  8  1  -13  0  7989.09  7867.90  211.85  o
  8  1  13  1  288.48  263.68  52.77  o
  8  1  -13  1  325.32  331.49  62.15  o
  8  1  13  2  4.41  -41.42  37.65  <
  8  1  -13  2  3.14  3.77  39.54  <
  9  1  13  -2  34.06  15.06  39.54  <
  9  1  -13  -2  39.53  -45.19  37.65  <
  9  1  13  -1  968.87  970.58  90.46  o
  9  1  -13  -1  1032.51  761.43  85.54  o
  9  1  13  0  1993.87  1912.81  115.43  o
  9  1  -13  0  2020.72  1748.74  103.17  o
  9  1  13  1  190.38  135.59  54.65  <
  9  1  -13  1  163.17  154.42  54.62  <
  9  1  13  2  23.46  -16.95  39.54  <
  9  1  -13  2  21.31  -73.43  37.63  <
  10  1  13  -2  137.15  107.34  52.75  <
  10  1  -13  -2  147.21  97.92  50.87  <
  10  1  13  -1  135.32  62.14  50.88  <
  10  1  -13  -1  140.68  218.44  58.31  o
  10  1  13  0  4210.57  4490.49  171.98  o
  10  1  -13  0  4228.31  4277.00  173.56  o
  10  1  13  1  1554.53  1570.58  107.41  o
  10  1  -13  1  1530.83  1489.47  109.50  o
  10  1  13  2  12.94  -26.36  43.30  <
  10  1  -13  2  16.76  39.54  45.19  <
  11  1  13  -2  32.96  26.36  47.07  <
  11  1  -13  -2  29.70  28.24  48.96  <
  11  1  13  -1  411.19  463.35  79.03  o
  11  1  -13  -1  410.27  438.87  73.41  o
  11  1  13  0  516.75  638.58  84.54  o
  11  1  -13  0  557.01  659.32  88.34  o
  11  1  13  1  276.53  169.50  62.24  <
  11  1  -13  1  277.90  290.03  73.44  o
  11  1  13  2  21.59  33.89  54.60  <
  11  1  -13  2  21.54  43.31  56.48  <
  12  1  13  -2  41.74  39.54  54.61  <
  12  1  -13  -2  40.29  -22.60  47.07  <
  12  1  13  -1  288.02  274.97  65.93  o
  12  1  -13  -1  279.39  178.91  69.76  <
  12  1  13  0  6867.50  6691.08  241.77  o
  12  1  -13  0  6835.12  6832.90  249.93  o
  12  1  13  1  310.35  280.62  67.83  o
  12  1  -13  1  295.49  316.40  80.96  o
  12  1  13  2  76.32  -13.18  52.73  <
  12  1  -13  2  74.42  35.78  60.26  <
  13  1  13  -2  19.44  71.55  58.36  <
  13  1  -13  -2  19.30  -1.88  79.08  <
  13  1  13  -1  364.56  361.62  82.87  o
  13  1  -13  -1  360.76  372.92  84.74  o
  13  1  13  0  569.09  615.98  97.88  o
  13  1  -13  0  531.45  580.17  103.53  o
  13  1  13  1  231.27  126.18  73.51  <
  13  1  -13  1  246.12  80.98  69.77  <
  13  1  13  2  1.20  48.96  58.36  <
  13  1  -13  2  0.56  28.24  65.90  <
  14  1  13  -2  5.45  90.38  62.11  <
  14  1  -13  -2  5.11  182.64  107.27  <
  14  1  13  -1  113.94  107.33  62.14  <
  14  1  -13  -1  108.79  160.06  88.48  <
  14  1  13  0  48.93  88.50  73.42  <
  14  1  -13  0  51.25  92.26  88.49  <
  14  1  13  1  1154.40  957.33  136.08  o
  14  1  -13  1  1162.89  1017.64  130.35  o
  14  1  13  2  21.78  9.41  82.85  <
  14  1  -13  2  18.28  9.41  67.79  <
  15  1  13  -2  15.43  18.83  67.78  <
  15  1  -13  -2  16.93  124.27  114.83  <
  15  1  13  -1  224.28  82.86  77.27  <
  15  1  -13  -1  209.23  88.51  88.56  <
  15  1  13  0  859.15  830.87  139.47  o
  15  1  -13  0  864.50  985.37  163.73  o
  15  1  13  1  213.10  141.24  94.19  <
  15  1  -13  1  232.03  128.06  96.09  <
  15  1  13  2  20.15  -7.53  84.73  <
  15  1  -13  2  24.07  5.65  92.26  <
  16  1  13  -2  60.78  20.71  75.32  <
  16  1  -13  -2  57.44  9.41  109.21  <
  1  2  13  -2  36.44  15.06  35.78  <
  1  2  -13  -2  34.27  11.30  32.01  <
  1  2  13  -1  233.46  267.45  54.58  o
  1  2  -13  -1  236.32  178.93  47.15  o
  1  2  13  0  1001.61  1185.71  91.77  o
  1  2  -13  0  961.67  1215.81  78.19  o
  1  2  13  1  1397.11  1255.93  89.18  o
  1  2  -13  1  1379.22  1327.57  83.20  o
  1  2  13  2  20.31  26.36  37.66  <
  1  2  -13  2  21.24  0.00  32.01  <
  2  2  13  -2  91.79  54.61  37.68  <
  2  2  -13  -2  85.96  96.04  39.54  <
  2  2  13  -1  286.61  261.81  50.89  o
  2  2  -13  -1  271.55  286.29  50.83  o
  2  2  13  0  30475.00  30365.90  514.15  o
  2  2  -13  0  30407.10  29578.40  498.53  o
  2  2  13  1  3366.12  3719.09  129.70  o
  2  2  -13  1  3368.62  3499.88  119.94  o
  2  2  13  2  77.89  9.42  39.56  <
  2  2  -13  2  75.86  99.80  41.41  <
  3  2  13  -2  19.15  -13.18  32.01  <
  3  2  -13  -2  18.92  0.00  30.13  <
  3  2  13  -1  38.34  47.07  37.66  <
  3  2  -13  -1  37.21  -1.88  30.13  <
  3  2  13  0  636.20  601.07  67.92  o
  3  2  -13  0  628.85  808.33  73.00  o
  3  2  13  1  736.01  870.58  88.23  o
  3  2  -13  1  715.66  674.59  71.71  o
  3  2  13  2  48.15  97.91  50.82  <
  3  2  -13  2  47.45  45.19  37.66  <
  4  2  13  -2  4.08  16.95  28.24  <
  4  2  -13  -2  3.86  18.83  33.89  <
  4  2  13  -1  168.20  165.73  41.43  o
  4  2  -13  -1  177.67  235.41  48.90  o
  4  2  13  0  2196.03  2196.91  109.46  o
  4  2  -13  0  2203.06  2145.97  102.24  o
  4  2  13  1  16.43  48.96  41.42  <
  4  2  -13  1  16.63  1.88  35.78  <
  4  2  13  2  9.77  -3.77  37.66  <
  4  2  -13  2  11.18  5.65  37.66  <
  5  2  13  -2  44.07  15.06  26.37  <
  5  2  -13  -2  45.44  33.89  35.78  <
  5  2  13  -1  287.00  261.80  52.77  o
  5  2  -13  -1  296.70  256.15  52.79  o
  5  2  13  0  248.55  184.57  49.04  o
  5  2  -13  0  259.82  244.84  52.75  o
  5  2  13  1  928.59  776.47  83.33  o
  5  2  -13  1  905.89  993.19  99.66  o
  5  2  13  2  15.40  -41.42  37.65  <
  5  2  -13  2  16.68  -26.36  41.42  <
  6  2  13  -2  42.72  3.77  33.90  <
  6  2  -13  -2  44.10  11.30  32.02  <
  6  2  13  -1  356.58  425.69  65.81  o
  6  2  -13  -1  352.27  310.79  58.45  o
  6  2  13  0  45002.50  44293.90  710.67  o
  6  2  -13  0  45047.80  44311.60  697.64  o
  6  2  13  1  3681.75  3800.03  140.88  o
  6  2  -13  1  3650.96  3869.83  143.96  o
  6  2  13  2  112.90  190.19  58.32  o
  6  2  -13  2  117.20  88.51  52.74  <
  7  2  13  -2  64.99  41.43  41.43  <
  7  2  -13  -2  68.92  92.27  43.30  <
  7  2  13  -1  128.45  148.77  48.95  o
  7  2  -13  -1  134.13  135.59  48.96  <
  7  2  13  0  15.34  0.00  39.54  <
  7  2  -13  0  6.68  -16.95  35.77  <
  7  2  13  1  608.91  580.26  81.07  o
  7  2  -13  1  611.24  529.39  71.76  o
  7  2  13  2  99.82  65.91  50.86  <
  7  2  -13  2  103.66  -5.65  41.45  <
  8  2  13  -2  53.65  15.06  35.78  <
  8  2  -13  -2  55.98  105.45  47.05  <
  8  2  13  -1  92.01  22.60  43.33  <
  8  2  -13  -1  69.49  11.30  39.56  <
  8  2  13  0  810.14  802.71  88.58  o
  8  2  -13  0  847.91  766.94  85.00  o
  8  2  13  1  130.70  35.78  49.00  <
  8  2  -13  1  130.13  47.08  41.47  <
  8  2  13  2  35.84  35.78  47.07  <
  8  2  -13  2  37.13  3.77  45.19  <
  9  2  13  -2  41.16  73.44  48.95  <
  9  2  -13  -2  40.40  65.90  43.30  <
  9  2  13  -1  327.04  307.00  58.42  o
  9  2  -13  -1  313.98  246.73  58.47  o
  9  2  13  0  1332.01  1379.90  109.18  o
  9  2  -13  0  1300.67  1447.72  105.04  o
  9  2  13  1  264.46  403.03  77.04  o
  9  2  -13  1  255.21  301.33  65.86  o
  9  2  13  2  0.06  5.65  47.07  <
  9  2  -13  2  0.56  5.65  50.84  <
  10  2  13  -2  45.56  26.36  43.31  <
  10  2  -13  -2  41.81  15.06  47.08  <
  10  2  13  -1  351.57  320.19  65.96  o
  10  2  -13  -1  343.47  401.17  75.26  o
  10  2  13  0  17236.30  17124.40  391.02  o
  10  2  -13  0  17121.70  16975.70  398.98  o
  10  2  13  1  1867.09  1983.86  123.97  o
  10  2  -13  1  1883.05  1765.13  126.80  o
  10  2  13  2  20.80  15.06  52.72  <
  10  2  -13  2  15.37  47.07  54.60  <
  11  2  13  -2  28.34  -5.65  43.31  <
  11  2  -13  -2  32.41  33.89  54.60  <
  11  2  13  -1  262.35  276.84  65.90  o
  11  2  -13  -1  263.86  205.28  69.73  <
  11  2  13  0  736.24  774.33  103.55  o
  11  2  -13  0  793.94  825.24  107.33  o
  11  2  13  1  330.36  472.73  90.22  o
  11  2  -13  1  346.55  274.98  71.65  o
  11  2  13  2  57.91  80.97  62.13  <
  11  2  -13  2  55.29  0.00  56.49  <
  12  2  13  -2  6.89  -33.89  48.95  <
  12  2  -13  -2  3.34  65.90  60.24  <
  12  2  13  -1  136.83  88.51  52.75  <
  12  2  -13  -1  140.09  97.92  65.93  <
  12  2  13  0  3396.34  3534.12  207.05  o
  12  2  -13  0  3319.77  3482.94  186.09  o
  12  2  13  1  91.00  112.98  62.13  <
  12  2  -13  1  89.50  82.85  71.56  <
  12  2  13  2  26.48  -16.95  60.25  <
  12  2  -13  2  17.56  32.01  64.02  <
  13  2  13  -2  28.76  -33.89  56.48  <
  13  2  -13  -2  33.05  71.55  65.89  <
  13  2  13  -1  589.94  459.63  101.89  o
  13  2  -13  -1  587.57  405.00  92.55  o
  13  2  13  0  1035.85  1068.43  145.03  o
  13  2  -13  0  1066.43  1079.76  133.76  o
  13  2  13  1  466.94  365.41  99.94  o
  13  2  -13  1  465.97  222.26  86.87  <
  13  2  13  2  18.59  -18.83  65.90  <
  13  2  -13  2  22.09  -18.83  69.67  <
  14  2  13  -2  7.57  -9.41  79.08  <
  14  2  -13  -2  7.62  -32.01  75.31  <
  14  2  13  -1  2.47  20.71  75.31  <
  14  2  -13  -1  1.74  -52.72  62.13  <
  14  2  13  0  3956.14  4152.45  295.75  o
  14  2  -13  0  3939.26  3521.70  243.38  o
  14  2  13  1  591.14  491.64  120.67  o
  14  2  -13  1  577.02  459.62  103.75  o
  14  2  13  2  97.59  24.48  84.75  <
  14  2  -13  2  95.50  116.75  86.61  <
  15  2  13  -2  42.07  33.89  79.08  <
  15  2  -13  -2  42.17  -13.18  86.62  <
  15  2  13  -1  314.98  220.35  92.35  <
  15  2  -13  -1  341.05  258.02  109.29  <
  15  2  13  0  816.94  602.88  162.26  o
  15  2  -13  0  743.62  708.34  150.76  o
  1  3  13  -2  53.78  -28.25  39.54  <
  1  3  -13  -2  58.01  60.26  37.66  <
  1  3  13  -1  1376.65  1448.18  95.89  o
  1  3  -13  -1  1372.70  1221.90  81.71  o
  1  3  13  0  6435.85  6363.86  186.38  o
  1  3  -13  0  6173.65  6216.30  173.90  o
  1  3  13  1  21.20  -9.41  43.31  <
  1  3  -13  1  19.91  -13.18  32.01  <
  1  3  13  2  236.00  158.20  54.69  <
  1  3  -13  2  245.32  152.55  47.18  o
  2  3  13  -2  218.25  105.47  43.42  <
  2  3  -13  -2  224.18  205.29  47.11  o
  2  3  13  -1  2650.38  2467.82  112.50  o
  2  3  -13  -1  2695.19  2904.12  109.98  o
  2  3  13  0  5573.49  5801.34  195.14  o
  2  3  -13  0  5559.96  5460.45  165.60  o
  2  3  13  1  1319.19  1187.70  107.86  o
  2  3  -13  1  1324.06  1259.35  86.98  o
  2  3  13  2  39.82  20.71  48.96  <
  2  3  -13  2  47.52  50.84  41.42  <
  3  3  13  -2  59.73  18.83  39.55  <
  3  3  -13  -2  58.16  35.78  33.90  <
  3  3  13  -1  962.72  961.23  94.24  o
  3  3  -13  -1  915.78  908.41  79.18  o
  3  3  13  0  13197.40  13267.40  325.39  o
  3  3  -13  0  13426.00  13560.30  282.55  o
  3  3  13  1  95.12  48.96  50.86  <
  3  3  -13  1  98.06  60.26  43.33  <
  3  3  13  2  136.48  67.79  56.52  <
  3  3  -13  2  134.89  58.38  47.11  <
  4  3  13  -2  9.92  18.83  37.66  <
  4  3  -13  -2  8.52  -7.53  33.89  <
  4  3  13  -1  31.28  33.89  41.42  <
  4  3  -13  -1  36.52  15.06  35.78  <
  4  3  13  0  201.00  86.63  45.28  <
  4  3  -13  0  210.04  216.58  58.37  o
  4  3  13  1  149.61  148.77  50.85  <
  4  3  -13  1  138.05  69.68  50.88  <
  4  3  13  2  7.89  28.24  45.19  <
  4  3  -13  2  8.69  11.30  45.19  <
  5  3  13  -2  51.65  5.65  39.55  <
  5  3  -13  -2  57.61  37.66  45.20  <
  5  3  13  -1  2118.35  2069.82  109.68  o
  5  3  -13  -1  2169.95  1920.86  118.12  o
  5  3  13  0  11239.90  11288.80  275.36  o
  5  3  -13  0  11326.20  11442.00  309.03  o
  5  3  13  1  40.90  28.24  43.31  <
  5  3  -13  1  41.76  18.83  45.19  <
  5  3  13  2  123.47  145.00  52.71  <
  5  3  -13  2  112.59  92.27  54.62  <
  6  3  13  -2  171.46  216.57  56.45  o
  6  3  -13  -2  170.79  165.72  54.62  o
  6  3  13  -1  3882.53  3634.13  141.60  o
  6  3  -13  -1  3875.64  3868.44  158.79  o
  6  3  13  0  3176.88  2993.00  137.06  o
  6  3  -13  0  3045.22  3066.28  154.71  o
  6  3  13  1  594.72  459.66  75.60  o
  6  3  -13  1  625.15  585.90  90.50  o
  6  3  13  2  136.83  -22.60  43.34  <
  6  3  -13  2  143.20  -35.78  52.75  <
  7  3  13  -2  143.19  131.82  52.74  <
  7  3  -13  -2  146.06  58.38  43.36  <
  7  3  13  -1  1008.85  949.85  101.92  o
  7  3  -13  -1  973.46  929.09  94.35  o
  7  3  13  0  5231.35  5317.15  199.90  o
  7  3  -13  0  5125.50  5329.90  189.52  o
  7  3  13  1  118.07  124.28  58.37  <
  7  3  -13  1  129.22  79.09  50.87  <
  7  3  13  2  212.86  195.85  73.46  <
  7  3  -13  2  205.61  54.61  56.57  <
  8  3  13  -2  14.57  24.48  41.42  <
  8  3  -13  -2  16.73  -24.48  35.77  <
  8  3  13  -1  121.75  199.61  60.20  o
  8  3  -13  -1  121.21  141.23  54.60  <
  8  3  13  0  1537.61  1798.62  127.27  o
  8  3  -13  0  1524.46  1970.17  122.68  o
  8  3  13  1  75.38  45.19  56.50  <
  8  3  -13  1  102.72  -5.65  50.86  <
  8  3  13  2  9.93  3.77  54.60  <
  8  3  -13  2  7.33  -30.13  54.60  <
  9  3  13  -2  62.16  56.49  50.84  <
  9  3  -13  -2  76.11  39.54  45.20  <
  9  3  13  -1  1227.16  1513.53  121.63  o
  9  3  -13  -1  1268.24  1336.40  116.66  o
  9  3  13  0  4600.75  4961.24  211.38  o
  9  3  -13  0  4760.53  4508.23  203.78  o
  9  3  13  1  145.68  101.69  67.81  <
  9  3  -13  1  131.01  32.01  62.17  <
  9  3  13  2  87.24  64.02  64.03  <
  9  3  -13  2  89.05  37.66  60.27  <
  10  3  13  -2  100.28  129.93  56.47  <
  10  3  -13  -2  105.33  58.37  52.74  <
  10  3  13  -1  1412.39  1425.10  131.92  o
  10  3  -13  -1  1448.86  1466.62  122.48  o
  10  3  13  0  3093.87  3382.41  177.90  o
  10  3  -13  0  3087.16  3084.17  164.23  o
  10  3  13  1  1189.31  1323.00  133.47  o
  10  3  -13  1  1160.81  1192.94  129.96  o
  10  3  13  2  34.38  9.41  62.14  <
  10  3  -13  2  36.71  -43.31  58.37  <
  11  3  13  -2  28.96  11.30  52.72  <
  11  3  -13  -2  27.06  32.01  62.14  <
  11  3  13  -1  480.92  412.51  86.74  o
  11  3  -13  -1  507.99  372.96  86.82  o
  11  3  13  0  3776.67  3580.30  195.48  o
  11  3  -13  0  4017.89  3832.16  186.13  o
  11  3  13  1  136.84  180.78  77.18  <
  11  3  -13  1  142.09  77.21  69.70  <
  11  3  13  2  165.70  -3.77  67.83  <
  11  3  -13  2  167.42  152.53  84.75  <
  12  3  13  -2  24.77  75.32  65.89  <
  12  3  -13  -2  20.15  54.60  65.90  <
  12  3  13  -1  83.23  26.36  62.15  <
  12  3  -13  -1  93.27  137.46  75.30  <
  12  3  13  0  2957.66  2739.98  178.30  o
  12  3  -13  0  2999.91  2908.02  185.32  o
  12  3  13  1  273.18  229.76  88.55  <
  12  3  -13  1  234.57  229.75  88.51  <
  12  3  13  2  48.01  11.30  69.67  <
  12  3  -13  2  47.56  -18.83  71.55  <
  13  3  13  -2  91.21  -11.30  67.80  <
  13  3  -13  -2  96.05  124.28  75.31  <
  13  3  13  -1  929.87  813.97  133.97  o
  13  3  -13  -1  938.81  847.89  126.41  o
  13  3  13  0  5542.02  5015.39  241.24  o
  13  3  -13  0  5334.79  5594.93  251.77  o
  13  3  13  1  139.26  79.09  77.23  <
  13  3  -13  1  155.10  173.24  88.50  <
  14  3  13  -2  37.33  120.51  86.59  <
  14  3  -13  -2  34.93  84.73  80.96  <
  14  3  13  -1  395.59  523.59  122.29  o
  14  3  -13  -1  405.40  248.61  94.31  <
  1  4  13  -2  205.65  116.76  49.04  <
  1  4  -13  -2  198.66  77.21  39.64  <
  1  4  13  -1  1853.75  1782.39  113.47  o
  1  4  -13  -1  1859.84  1759.76  94.81  o
  1  4  13  0  196.04  135.59  62.19  <
  1  4  -13  0  147.08  177.01  52.70  o
  1  4  13  1  2670.79  2772.13  159.94  o
  1  4  -13  1  2584.48  2524.74  119.22  o
  1  4  13  2  10.40  -28.24  56.48  <
  1  4  -13  2  9.97  24.48  43.31  <
  2  4  13  -2  44.56  -33.89  39.54  <
  2  4  -13  -2  48.84  -1.88  33.90  <
  2  4  13  -1  272.13  378.55  71.43  o
  2  4  -13  -1  322.00  406.82  58.24  o
  2  4  13  0  2675.97  2596.90  143.82  o
  2  4  -13  0  2686.94  2525.21  119.83  o
  2  4  13  1  1424.11  1532.60  135.41  o
  2  4  -13  1  1441.42  1547.70  114.62  o
  2  4  13  2  82.40  114.86  69.66  <
  2  4  -13  2  84.39  84.74  58.37  <
  3  4  13  -2  159.64  152.54  58.38  <
  3  4  -13  -2  162.44  143.12  45.21  o
  3  4  13  -1  617.57  828.93  95.64  o
  3  4  -13  -1  652.26  487.96  73.80  o
  3  4  13  0  259.50  273.08  73.44  o
  3  4  -13  0  251.22  145.01  58.47  <
  3  4  13  1  2162.47  2333.27  136.94  o
  3  4  -13  1  2154.29  2378.53  132.89  o
  3  4  13  2  24.74  -39.54  52.72  <
  3  4  -13  2  23.74  3.77  50.84  <
  4  4  13  -2  0.03  35.77  43.30  <
  4  4  -13  -2  0.03  -28.24  39.54  <
  4  4  13  -1  29.20  67.79  47.06  <
  4  4  -13  -1  32.19  -3.77  47.08  <
  4  4  13  0  1123.03  1260.85  107.01  o
  4  4  -13  0  1106.00  1202.41  112.81  o
  4  4  13  1  10.64  -28.24  47.07  <
  4  4  -13  1  10.89  -32.01  52.72  <
  4  4  13  2  3.30  75.32  56.47  <
  4  4  -13  2  3.41  -1.88  52.72  <
  5  4  13  -2  219.02  158.19  50.90  o
  5  4  -13  -2  228.46  207.16  62.17  o
  5  4  13  -1  885.89  857.38  92.40  o
  5  4  -13  -1  916.22  881.90  105.60  o
  5  4  13  0  612.61  574.57  84.84  o
  5  4  -13  0  670.74  429.54  83.29  o
  5  4  13  1  1761.18  1757.32  126.35  o
  5  4  -13  1  1798.11  1710.23  130.42  o
  5  4  13  2  7.50  0.00  58.37  <
  5  4  -13  2  6.01  -35.78  54.60  <
  6  4  13  -2  86.88  45.19  45.21  <
  6  4  -13  -2  90.93  86.62  54.61  <
  6  4  13  -1  184.84  192.09  56.49  o
  6  4  -13  -1  205.70  186.44  64.04  <
  6  4  13  0  2169.90  2040.89  126.94  o
  6  4  -13  0  2151.64  2287.95  150.35  o
  6  4  13  1  1178.65  1059.16  120.91  o
  6  4  -13  1  1157.22  1098.72  124.52  o
  6  4  13  2  39.20  43.31  62.14  <
  6  4  -13  2  41.86  50.84  77.20  <
  7  4  13  -2  153.96  39.55  52.77  <
  7  4  -13  -2  152.48  80.97  50.88  <
  7  4  13  -1  853.15  829.05  101.80  o
  7  4  -13  -1  836.21  687.73  90.76  o
  7  4  13  0  193.95  152.54  73.47  <
  7  4  -13  0  161.98  124.29  65.93  <
  7  4  13  1  1968.24  2032.82  154.41  o
  7  4  -13  1  1977.15  1753.75  149.70  o
  7  4  13  2  38.24  16.95  73.44  <
  7  4  -13  2  36.34  65.90  71.55  <
  8  4  13  -2  22.75  -5.65  50.84  <
  8  4  -13  -2  22.11  -30.13  50.84  <
  8  4  13  -1  391.90  369.16  88.55  o
  8  4  -13  -1  380.39  212.83  71.74  <
  8  4  13  0  330.65  344.66  88.50  o
  8  4  -13  0  397.20  350.33  86.69  o
  8  4  13  1  95.64  54.61  69.68  <
  8  4  -13  1  94.52  30.13  62.15  <
  8  4  13  2  32.04  20.71  67.79  <
  8  4  -13  2  31.76  -1.88  65.90  <
  9  4  13  -2  60.62  173.23  67.73  <
  9  4  -13  -2  65.09  58.37  62.14  <
  9  4  13  -1  896.05  844.12  115.04  o
  9  4  -13  -1  861.26  913.82  116.71  o
  9  4  13  0  1184.70  1236.28  143.11  o
  9  4  -13  0  1119.14  1260.72  135.35  o
  9  4  13  1  2125.65  2536.46  170.07  o
  9  4  -13  1  2113.91  2147.96  171.50  o
  9  4  13  2  38.54  -26.36  71.55  <
  9  4  -13  2  35.58  -28.24  67.78  <
  10  4  13  -2  13.35  13.18  58.37  <
  10  4  -13  -2  11.98  -45.19  54.60  <
  10  4  13  -1  35.34  67.79  67.78  <
  10  4  -13  -1  39.66  5.65  62.14  <
  10  4  13  0  3534.09  3296.14  195.54  o
  10  4  -13  0  3548.94  2844.98  182.54  o
  10  4  13  1  760.46  900.52  131.63  o
  10  4  -13  1  789.28  744.17  118.77  o
  11  4  13  -2  124.60  24.48  65.93  <
  11  4  -13  -2  122.75  75.32  73.46  <
  11  4  13  -1  328.92  209.05  81.08  <
  11  4  -13  -1  327.22  216.59  84.84  <
  11  4  13  0  965.34  981.67  135.63  o
  11  4  -13  0  1106.31  804.64  126.83  o
  11  4  13  1  1219.45  1240.02  150.72  o
  11  4  -13  1  1216.91  1356.85  152.32  o
  12  4  13  -2  13.19  -41.42  64.01  <
  12  4  -13  -2  13.44  -67.78  60.24  <
  12  4  13  -1  199.85  107.34  79.14  <
  12  4  -13  -1  199.54  167.60  90.41  <
  12  4  13  0  2770.97  2707.27  190.79  o
  12  4  -13  0  2668.82  2671.24  184.86  o
  13  4  13  -2  44.23  -3.77  67.79  <
  13  4  -13  -2  41.53  -54.61  64.01  <
  1  5  13  -2  5.97  13.18  56.49  <
  1  5  -13  -2  6.47  16.95  35.77  <
  1  5  13  -1  635.71  582.11  101.81  o
  1  5  -13  -1  604.44  484.14  71.82  o
  1  5  13  0  2273.64  1991.85  155.68  o
  1  5  -13  0  2203.76  2176.58  137.80  o
  1  5  13  1  104.23  90.39  77.21  <
  1  5  -13  1  86.47  62.14  60.26  <
  1  5  13  2  435.12  263.69  96.21  <
  1  5  -13  2  446.10  335.26  88.65  o
  2  5  13  -2  21.50  62.14  56.48  <
  2  5  -13  -2  23.96  30.13  43.31  <
  2  5  13  -1  1828.68  1944.13  146.68  o
  2  5  -13  -1  1847.41  1827.24  122.65  o
  2  5  13  0  3195.78  3078.59  183.62  o
  2  5  -13  0  3165.88  3167.23  160.43  o
  2  5  13  1  18.39  56.49  75.31  <
  2  5  -13  1  19.94  5.65  56.49  <
  2  5  13  2  65.91  33.89  79.09  <
  2  5  -13  2  74.54  52.72  65.91  <
  3  5  13  -2  8.12  0.00  52.72  <
  3  5  -13  -2  6.64  13.18  45.19  <
  3  5  13  -1  361.82  329.60  81.02  o
  3  5  -13  -1  365.03  301.35  71.65  o
  3  5  13  0  5363.80  5348.66  221.30  o
  3  5  -13  0  5581.86  5077.25  207.65  o
  3  5  13  1  126.78  41.43  77.23  <
  3  5  -13  1  124.19  47.08  65.93  <
  3  5  13  2  304.51  177.03  90.48  <
  3  5  -13  2  298.95  320.16  94.15  o
  4  5  13  -2  1.54  20.71  45.19  <
  4  5  -13  -2  2.14  -20.71  48.95  <
  4  5  13  -1  65.21  35.78  52.73  <
  4  5  -13  -1  70.31  77.20  58.37  <
  4  5  13  0  429.69  452.04  96.03  o
  4  5  -13  0  417.50  433.20  90.39  o
  4  5  13  1  36.37  9.41  69.67  <
  4  5  -13  1  27.65  41.42  71.55  <
  4  5  13  2  1.35  -58.37  75.31  <
  4  5  -13  2  2.04  75.32  92.25  <
  5  5  13  -2  18.51  58.37  52.71  <
  5  5  -13  -2  20.74  -11.30  54.60  <
  5  5  13  -1  1207.55  1373.92  127.70  o
  5  5  -13  -1  1202.85  1155.29  126.39  o
  5  5  13  0  5617.65  5458.87  227.93  o
  5  5  -13  0  5565.99  5591.02  230.51  o
  5  5  13  1  242.42  224.10  90.41  <
  5  5  -13  1  244.39  150.66  92.33  <
  5  5  13  2  233.99  150.66  88.56  <
  5  5  -13  2  227.52  145.01  94.20  <
  6  5  13  -2  14.68  18.83  56.49  <
  6  5  -13  -2  16.74  26.36  62.14  <
  6  5  13  -1  1674.49  1606.28  139.73  o
  6  5  -13  -1  1678.73  1736.37  167.64  o
  6  5  13  0  1708.83  1677.90  156.57  o
  6  5  -13  0  1672.28  1841.87  178.65  o
  6  5  13  1  99.41  103.57  79.09  <
  6  5  -13  1  102.50  35.78  69.69  <
  7  5  13  -2  59.09  0.00  65.91  <
  7  5  -13  -2  58.26  75.32  65.90  <
  7  5  13  -1  549.99  504.82  105.54  o
  7  5  -13  -1  532.72  199.67  79.46  <
  7  5  13  0  3006.29  3077.75  190.29  o
  7  5  -13  0  2809.66  2732.03  179.56  o
  7  5  13  1  259.09  258.00  97.93  <
  7  5  -13  1  278.20  312.62  105.44  <
  8  5  13  -2  16.08  -7.53  64.02  <
  8  5  -13  -2  17.02  15.06  62.14  <
  8  5  13  -1  123.18  146.88  79.08  <
  8  5  -13  -1  110.09  99.80  69.68  <
  8  5  13  0  1838.32  2034.33  178.54  o
  8  5  -13  0  1854.76  1896.72  163.90  o
  9  5  13  -2  33.73  39.54  69.67  <
  9  5  -13  -2  41.31  80.97  71.54  <
  9  5  13  -1  1094.46  1068.45  139.50  o
  9  5  -13  -1  1146.38  1015.72  130.31  o
  9  5  13  0  2234.25  2317.75  182.65  o
  9  5  -13  0  2454.58  1925.79  178.96  o
  10  5  13  -2  6.86  11.30  69.67  <
  10  5  -13  -2  8.69  43.31  71.55  <
  10  5  13  -1  1173.04  1047.76  143.47  o
  10  5  -13  -1  1183.53  1111.85  143.37  o
  11  5  13  -2  44.46  65.90  77.20  <
  11  5  -13  -2  46.86  -80.97  67.77  <
  1  6  13  -2  195.87  227.86  80.95  <
  1  6  -13  -2  187.65  77.21  58.44  <
  1  6  13  -1  3149.70  3410.25  195.09  o
  1  6  -13  -1  3238.18  3038.66  168.96  o
  1  6  13  0  799.97  406.94  126.67  o
  1  6  -13  0  655.45  634.83  116.82  o
  2  6  13  -2  129.55  26.36  65.93  <
  2  6  -13  -2  144.81  -22.60  52.75  <
  2  6  13  -1  636.06  902.32  152.21  o
  2  6  -13  -1  685.16  655.57  99.90  o
  2  6  13  0  223.85  152.54  90.43  <
  2  6  -13  0  241.21  92.28  73.52  <
  3  6  13  -2  198.78  173.25  79.11  <
  3  6  -13  -2  203.35  256.11  77.17  o
  3  6  13  -1  1788.53  1566.72  158.98  o
  3  6  -13  -1  1801.21  1753.38  149.10  o
  4  6  13  -2  4.99  -22.59  60.25  <
  4  6  -13  -2  6.14  -33.89  60.25  <
  4  6  13  -1  19.83  86.61  84.72  <
  4  6  -13  -1  24.89  18.83  71.55  <
  5  6  13  -2  147.29  43.31  69.71  <
  5  6  -13  -2  157.39  112.99  80.99  <
  5  6  13  -1  2159.18  2296.92  186.25  o
  5  6  -13  -1  2087.60  2162.91  205.33  o
  6  6  13  -2  143.45  56.49  73.47  <
  6  6  -13  -2  147.85  -7.53  67.82  <
  6  6  13  -1  893.89  864.80  139.47  o
  6  6  -13  -1  963.03  823.39  130.26  o
  7  6  13  -2  164.70  165.71  88.51  <
  7  6  -13  -2  155.85  120.52  77.22  <
  8  6  13  -2  23.75  71.55  79.07  <
  8  6  -13  -2  21.94  -73.43  65.89  <
  0  0  14  0  37807.80  37831.80  939.77  o
  0  0  -14  0  37914.50  38889.00  911.48  o
  0  0  14  1  4257.39  4357.06  133.53  o
  0  0  -14  1  4272.98  4396.89  179.01  o
  0  0  14  2  31.62  -11.30  52.72  <
  0  0  -14  2  24.29  15.06  48.96  <
  1  0  14  1  263.76  310.78  37.57  o
  1  0  -14  1  262.68  244.85  43.35  o
  1  0  14  2  13.77  -11.30  32.01  <
  1  0  -14  2  13.97  15.06  32.01  <
  2  0  14  0  291.69  290.07  54.63  o
  2  0  -14  0  286.03  327.74  79.06  o
  2  0  14  1  29.74  45.19  35.77  <
  2  0  -14  1  25.73  24.48  30.13  <
  2  0  14  2  5.82  18.83  39.54  <
  2  0  -14  2  5.71  -52.72  30.11  <
  3  0  14  1  346.76  420.05  54.48  o
  3  0  -14  1  334.82  320.22  54.65  o
  3  0  14  2  6.30  18.83  35.77  <
  3  0  -14  2  7.55  -5.65  28.24  <
  4  0  14  0  34553.20  30962.60  793.37  o
  4  0  -14  0  34448.70  33131.40  614.45  o
  4  0  14  1  5605.82  5499.03  139.46  o
  4  0  -14  1  5617.56  5610.91  157.34  o
  4  0  14  2  42.29  73.44  35.76  <
  4  0  -14  2  37.67  30.13  37.66  <
  5  0  14  1  164.90  137.48  45.22  o
  5  0  -14  1  162.02  161.96  43.31  o
  5  0  14  2  22.99  15.06  35.78  <
  5  0  -14  2  24.92  33.89  35.77  <
  6  0  14  0  1674.77  1514.63  132.54  o
  6  0  -14  0  1718.41  1527.90  104.52  o
  6  0  14  1  222.51  220.35  54.62  o
  6  0  -14  1  218.51  212.82  43.32  o
  6  0  14  2  55.29  65.90  39.54  <
  6  0  -14  2  53.01  65.90  35.77  <
  7  0  14  1  124.62  145.00  45.18  o
  7  0  -14  1  132.79  97.92  39.57  <
  7  0  14  2  5.75  -1.88  39.54  <
  7  0  -14  2  5.14  -3.77  37.66  <
  8  0  14  0  13613.70  13205.50  419.31  o
  8  0  -14  0  13711.60  13595.90  483.51  o
  8  0  14  1  1530.79  1331.27  100.68  o
  8  0  -14  1  1566.82  1665.08  97.62  o
  8  0  14  2  22.06  -28.24  37.65  <
  8  0  -14  2  17.65  16.95  39.54  <
  9  0  14  1  199.23  333.33  65.76  o
  9  0  -14  1  197.95  250.47  63.98  o
  9  0  14  2  81.12  11.30  43.32  <
  9  0  -14  2  81.12  5.65  43.32  <
  10  0  14  0  427.04  350.35  105.55  o
  10  0  -14  0  388.60  563.17  127.90  o
  10  0  14  1  225.00  346.52  71.43  o
  10  0  -14  1  230.48  214.69  60.28  o
  10  0  14  2  3.46  26.36  47.07  <
  10  0  -14  2  4.08  -11.30  47.07  <
  11  0  14  1  69.94  30.13  56.50  <
  11  0  -14  1  73.41  -18.83  48.96  <
  11  0  14  2  53.12  26.36  50.85  <
  11  0  -14  2  55.27  3.77  48.96  <
  12  0  14  0  11623.20  11008.50  461.97  o
  12  0  -14  0  11600.90  12000.30  474.31  o
  12  0  14  1  2292.32  2282.45  145.29  o
  12  0  -14  1  2277.98  2444.65  184.28  o
  12  0  14  2  15.04  16.95  54.60  <
  12  0  -14  2  11.95  22.59  52.72  <
  13  0  14  1  56.75  79.08  62.13  <
  13  0  -14  1  53.26  101.68  82.84  <
  13  0  14  2  7.56  33.89  56.48  <
  13  0  -14  2  7.60  64.02  65.89  <
  14  0  14  0  675.82  625.43  148.88  o
  14  0  -14  0  661.90  602.82  220.45  <
  14  0  14  1  438.62  318.31  84.89  o
  14  0  -14  1  424.89  359.74  133.78  <
  14  0  14  2  119.63  75.32  67.81  <
  14  0  -14  2  112.70  62.14  97.93  <
  15  0  14  1  28.94  62.14  71.54  <
  15  0  -14  1  31.16  13.18  101.68  <
  15  0  14  2  17.16  -7.53  75.32  <
  15  0  -14  2  13.73  77.20  118.61  <
  0  1  14  -2  138.54  237.28  50.74  o
  0  1  -14  -2  139.98  118.64  56.51  <
  0  1  14  -1  260.06  357.86  82.77  o
  0  1  -14  -1  276.85  359.75  75.24  o
  0  1  14  0  3763.10  3841.31  200.09  o
  0  1  -14  0  3894.08  3677.33  186.54  o
  0  1  14  1  343.51  224.15  73.58  o
  0  1  -14  1  352.20  416.29  92.23  o
  0  1  14  2  8.66  0.00  60.25  <
  0  1  -14  2  8.91  22.59  54.60  <
  1  1  14  -2  20.20  -11.30  22.59  <
  1  1  -14  -2  20.01  -7.53  26.36  <
  1  1  14  -1  1082.67  1065.23  75.48  o
  1  1  -14  -1  1085.76  1044.49  77.45  o
  1  1  14  0  967.96  1053.74  82.66  o
  1  1  -14  0  1038.30  908.67  79.59  o
  1  1  14  1  181.26  233.53  54.56  o
  1  1  -14  1  177.95  182.68  50.84  o
  1  1  14  2  105.55  28.25  43.34  <
  1  1  -14  2  102.16  75.32  41.44  <
  2  1  14  -2  16.17  11.30  24.48  <
  2  1  -14  -2  15.52  -3.77  33.89  <
  2  1  14  -1  116.43  77.21  35.81  <
  2  1  -14  -1  120.39  90.39  33.92  <
  2  1  14  0  5478.73  5502.98  170.34  o
  2  1  -14  0  5483.53  5643.23  165.32  o
  2  1  14  1  183.65  165.73  47.10  o
  2  1  -14  1  186.20  154.43  47.11  o
  2  1  14  2  20.06  9.41  33.89  <
  2  1  -14  2  19.91  43.31  43.30  <
  3  1  14  -2  42.60  -15.06  24.48  <
  3  1  -14  -2  42.64  18.83  39.55  <
  3  1  14  -1  1747.80  1858.43  88.07  o
  3  1  -14  -1  1731.61  1854.62  82.29  o
  3  1  14  0  1602.81  1565.66  94.48  o
  3  1  -14  0  1522.88  1463.67  87.03  o
  3  1  14  1  94.58  128.05  45.17  <
  3  1  -14  1  79.76  114.87  43.29  <
  3  1  14  2  46.80  82.85  41.41  <
  3  1  -14  2  42.70  5.65  35.78  <
  4  1  14  -2  127.63  107.34  39.56  <
  4  1  -14  -2  120.78  158.18  47.05  o
  4  1  14  -1  385.20  423.83  56.44  o
  4  1  -14  -1  373.66  295.74  54.75  o
  4  1  14  0  16405.50  17214.50  290.60  o
  4  1  -14  0  16445.90  16787.70  321.24  o
  4  1  14  1  89.70  94.15  35.78  <
  4  1  -14  1  93.60  43.31  41.45  <
  4  1  14  2  15.07  3.77  32.01  <
  4  1  -14  2  13.88  1.88  37.66  <
  5  1  14  -2  43.88  28.24  41.43  <
  5  1  -14  -2  42.21  0.00  33.90  <
  5  1  14  -1  1105.05  1104.70  88.60  o
  5  1  -14  -1  1146.79  1100.98  75.59  o
  5  1  14  0  982.77  1170.50  89.86  o
  5  1  -14  0  984.97  859.50  68.30  o
  5  1  14  1  144.66  139.35  41.43  o
  5  1  -14  1  137.22  52.73  37.71  <
  5  1  14  2  68.45  109.21  45.17  <
  5  1  -14  2  67.88  54.61  39.55  <
  6  1  14  -2  30.17  -5.65  33.89  <
  6  1  -14  -2  33.20  39.54  39.54  <
  6  1  14  -1  111.60  60.26  37.69  <
  6  1  -14  -1  109.16  126.17  39.53  o
  6  1  14  0  32648.60  31900.00  552.74  o
  6  1  -14  0  32621.90  32584.20  485.24  o
  6  1  14  1  107.34  90.39  45.20  <
  6  1  -14  1  106.26  105.45  45.19  <
  6  1  14  2  12.23  -18.83  37.66  <
  6  1  -14  2  14.33  -26.36  37.65  <
  7  1  14  -2  13.82  -41.42  35.77  <
  7  1  -14  -2  12.96  28.24  35.77  <
  7  1  14  -1  564.59  595.33  71.52  o
  7  1  -14  -1  570.57  568.96  71.59  o
  7  1  14  0  952.05  919.71  92.43  o
  7  1  -14  0  1045.16  891.52  87.15  o
  7  1  14  1  199.22  197.74  64.03  o
  7  1  -14  1  208.28  175.14  50.88  o
  7  1  14  2  58.97  15.06  43.32  <
  7  1  -14  2  59.20  22.60  41.43  <
  8  1  14  -2  38.80  39.54  41.42  <
  8  1  -14  -2  41.47  13.18  37.66  <
  8  1  14  -1  1193.58  1366.65  101.20  o
  8  1  -14  -1  1227.13  1161.21  90.71  o
  8  1  14  0  6221.14  6280.18  205.96  o
  8  1  -14  0  6138.18  5893.37  185.81  o
  8  1  14  1  16.64  1.88  43.31  <
  8  1  -14  1  13.36  0.00  41.42  <
  8  1  14  2  5.21  13.18  45.19  <
  8  1  -14  2  5.11  -26.36  39.54  <
  9  1  14  -2  47.67  35.78  43.31  <
  9  1  -14  -2  45.84  9.41  45.20  <
  9  1  14  -1  1016.07  782.12  87.31  o
  9  1  -14  -1  899.42  851.76  94.34  o
  9  1  14  0  743.15  772.50  90.37  o
  9  1  -14  0  659.43  798.82  86.34  o
  9  1  14  1  165.01  193.97  64.01  o
  9  1  -14  1  163.62  173.25  56.49  o
  9  1  14  2  127.05  32.01  52.76  <
  9  1  -14  2  133.45  32.01  45.23  <
  10  1  14  -2  15.99  26.36  45.19  <
  10  1  -14  -2  17.24  18.83  52.72  <
  10  1  14  -1  14.96  24.48  47.07  <
  10  1  -14  -1  14.23  -30.13  43.30  <
  10  1  14  0  710.16  877.96  95.70  o
  10  1  -14  0  717.10  836.52  101.49  o
  10  1  14  1  287.75  90.40  56.65  <
  10  1  -14  1  273.32  177.03  60.36  <
  10  1  14  2  20.93  -32.01  48.95  <
  10  1  -14  2  22.62  -22.60  45.19  <
  11  1  14  -2  74.91  43.31  50.85  <
  11  1  -14  -2  76.04  13.18  52.74  <
  11  1  14  -1  1333.96  1504.20  123.88  o
  11  1  -14  -1  1377.90  1361.00  109.39  o
  11  1  14  0  563.72  406.89  71.85  o
  11  1  -14  0  538.80  557.58  84.73  o
  11  1  14  1  311.96  378.56  73.36  o
  11  1  -14  1  313.39  308.87  77.22  o
  11  1  14  2  31.61  58.37  58.36  <
  11  1  -14  2  28.56  37.66  62.14  <
  12  1  14  -2  10.04  52.72  60.25  <
  12  1  -14  -2  9.92  -58.37  52.71  <
  12  1  14  -1  271.58  291.91  75.31  o
  12  1  -14  -1  260.49  237.29  79.12  o
  12  1  14  0  3360.27  3313.22  170.15  o
  12  1  -14  0  3422.03  3192.55  178.59  o
  12  1  14  1  786.47  708.40  94.36  o
  12  1  -14  1  785.89  864.78  135.52  o
  12  1  14  2  27.27  -11.30  60.25  <
  12  1  -14  2  27.04  -16.95  58.37  <
  13  1  14  -2  63.74  86.62  60.25  <
  13  1  -14  -2  61.29  -16.95  86.62  <
  13  1  14  -1  984.12  923.31  115.08  o
  13  1  -14  -1  1018.02  893.18  135.90  o
  13  1  14  0  176.93  308.83  80.86  o
  13  1  -14  0  210.86  116.76  73.49  <
  13  1  14  1  301.50  419.98  99.70  o
  13  1  -14  1  308.36  323.93  90.38  o
  13  1  14  2  38.61  -50.84  75.31  <
  13  1  -14  2  34.77  28.24  71.55  <
  14  1  14  -2  99.38  -30.13  56.50  <
  14  1  -14  -2  97.91  -35.78  84.74  <
  14  1  14  -1  30.52  -16.95  58.37  <
  14  1  -14  -1  46.82  -50.84  84.73  <
  14  1  14  0  12422.70  12301.00  523.28  o
  14  1  -14  0  12267.00  12124.90  439.92  o
  14  1  14  1  285.28  224.11  96.09  <
  14  1  -14  1  307.61  169.50  81.08  <
  14  1  14  2  86.69  64.02  97.92  <
  14  1  -14  2  90.79  62.14  77.21  <
  15  1  14  -2  52.38  13.18  62.14  <
  15  1  -14  -2  55.41  -9.41  99.80  <
  15  1  14  -1  906.72  872.34  137.60  o
  15  1  -14  -1  923.63  994.82  190.20  o
  15  1  14  0  424.08  141.26  94.36  <
  15  1  -14  0  461.49  361.63  124.40  <
  15  1  14  1  131.51  69.67  84.76  <
  15  1  -14  1  105.30  86.62  99.81  <
  0  2  14  -2  36.40  56.49  62.13  <
  0  2  -14  -2  32.39  9.41  50.84  <
  0  2  14  -1  543.65  489.85  96.16  o
  0  2  -14  -1  501.50  384.33  84.93  o
  0  2  14  0  35197.00  33185.00  827.72  o
  0  2  -14  0  35281.10  33885.90  786.77  o
  0  2  14  1  8158.67  7542.40  278.06  o
  0  2  -14  1  8168.21  7213.96  252.66  o
  0  2  14  2  74.89  -3.77  54.62  <
  0  2  -14  2  60.86  9.41  52.73  <
  1  2  14  -2  39.87  96.03  43.28  <
  1  2  -14  -2  36.60  16.95  37.66  <
  1  2  14  -1  272.32  214.71  54.69  o
  1  2  -14  -1  254.97  218.48  47.13  o
  1  2  14  0  2988.37  2714.49  128.17  o
  1  2  -14  0  2656.80  2953.33  117.05  o
  1  2  14  1  514.01  553.86  69.62  o
  1  2  -14  1  511.19  536.91  64.00  o
  1  2  14  2  52.89  50.84  43.31  <
  1  2  -14  2  54.81  15.06  33.90  <
  2  2  14  -2  9.62  15.06  39.54  <
  2  2  -14  -2  10.15  -58.37  30.10  <
  2  2  14  -1  82.96  96.04  45.19  <
  2  2  -14  -1  83.58  24.48  35.80  <
  2  2  14  0  126.00  120.52  45.20  <
  2  2  -14  0  128.45  79.09  41.46  <
  2  2  14  1  41.13  -30.13  41.42  <
  2  2  -14  1  39.60  33.89  35.78  <
  2  2  14  2  4.52  -22.59  41.42  <
  2  2  -14  2  4.48  7.53  35.77  <
  3  2  14  -2  36.05  60.25  41.42  <
  3  2  -14  -2  32.67  48.96  39.54  <
  3  2  14  -1  396.95  502.95  65.73  o
  3  2  -14  -1  410.02  480.35  63.91  o
  3  2  14  0  2184.34  2476.03  115.42  o
  3  2  -14  0  2629.68  2328.03  109.42  o
  3  2  14  1  838.37  1008.20  99.45  o
  3  2  -14  1  868.25  898.92  84.72  o
  3  2  14  2  55.11  54.61  50.84  <
  3  2  -14  2  59.25  20.71  35.79  <
  4  2  14  -2  55.55  1.88  32.02  <
  4  2  -14  -2  47.92  3.77  41.43  <
  4  2  14  -1  289.12  199.65  45.32  o
  4  2  -14  -1  259.11  235.43  54.65  o
  4  2  14  0  10385.00  10034.20  247.44  o
  4  2  -14  0  10389.00  9840.19  240.25  o
  4  2  14  1  7316.56  7540.37  187.28  o
  4  2  -14  1  7278.10  7248.04  178.59  o
  4  2  14  2  59.18  86.62  47.06  <
  4  2  -14  2  47.85  18.83  43.31  <
  5  2  14  -2  37.72  41.43  33.89  <
  5  2  -14  -2  40.05  88.50  41.40  <
  5  2  14  -1  511.68  546.33  69.63  o
  5  2  -14  -1  517.53  452.13  67.94  o
  5  2  14  0  2303.44  2277.85  117.14  o
  5  2  -14  0  2415.19  2310.19  119.46  o
  5  2  14  1  963.84  883.89  88.80  o
  5  2  -14  1  936.38  1042.17  99.60  o
  5  2  14  2  56.60  112.98  52.70  <
  5  2  -14  2  57.64  -11.30  47.08  <
  6  2  14  -2  19.86  71.55  45.17  <
  6  2  -14  -2  17.92  11.30  33.89  <
  6  2  14  -1  286.59  237.31  58.44  o
  6  2  -14  -1  285.79  406.82  63.85  o
  6  2  14  0  394.94  331.51  60.37  o
  6  2  -14  0  407.26  376.73  67.86  o
  6  2  14  1  193.75  150.66  50.88  <
  6  2  -14  1  189.92  163.84  58.40  <
  6  2  14  2  16.40  -9.41  41.42  <
  6  2  -14  2  14.94  -30.13  43.30  <
  7  2  14  -2  23.15  62.14  48.95  <
  7  2  -14  -2  19.50  5.65  37.66  <
  7  2  14  -1  340.93  318.31  65.95  o
  7  2  -14  -1  311.23  376.69  65.83  o
  7  2  14  0  2501.44  2319.42  132.98  o
  7  2  -14  0  2297.12  2303.89  126.39  o
  7  2  14  1  427.01  497.27  80.89  o
  7  2  -14  1  418.73  414.39  71.58  o
  7  2  14  2  28.51  -37.66  43.30  <
  7  2  -14  2  27.04  5.65  45.19  <
  8  2  14  -2  39.97  5.65  41.43  <
  8  2  -14  -2  41.08  9.41  39.55  <
  8  2  14  -1  140.59  7.53  43.35  <
  8  2  -14  -1  145.34  64.03  47.12  <
  8  2  14  0  10815.50  10702.60  290.07  o
  8  2  -14  0  10894.30  10889.60  268.11  o
  8  2  14  1  2677.42  2834.64  144.51  o
  8  2  -14  1  2681.21  2942.23  138.23  o
  8  2  14  2  53.03  47.07  48.96  <
  8  2  -14  2  52.62  -20.71  45.19  <
  9  2  14  -2  63.98  67.79  52.72  <
  9  2  -14  -2  61.49  58.37  48.96  <
  9  2  14  -1  62.72  133.69  58.34  <
  9  2  -14  -1  79.65  47.08  48.97  <
  9  2  14  0  1100.05  1196.76  110.92  o
  9  2  -14  0  1017.73  1042.14  101.70  o
  9  2  14  1  364.49  352.21  73.47  o
  9  2  -14  1  373.81  453.92  78.99  o
  9  2  14  2  116.21  54.61  52.75  <
  9  2  -14  2  119.53  11.30  52.75  <
  10  2  14  -2  8.48  -33.89  43.30  <
  10  2  -14  -2  12.32  -24.48  45.19  <
  10  2  14  -1  266.52  299.45  71.53  o
  10  2  -14  -1  268.24  312.63  65.86  o
  10  2  14  0  606.24  715.85  101.53  o
  10  2  -14  0  565.52  389.94  79.38  o
  10  2  14  1  254.63  205.28  69.72  <
  10  2  -14  1  260.00  273.08  71.55  o
  10  2  14  2  4.98  -24.48  54.60  <
  10  2  -14  2  8.45  -54.60  50.83  <
  11  2  14  -2  8.91  48.96  54.60  <
  11  2  -14  -2  11.94  -30.13  50.83  <
  11  2  14  -1  85.96  11.30  56.50  <
  11  2  -14  -1  106.96  82.85  64.03  <
  11  2  14  0  2724.23  2622.85  157.07  o
  11  2  -14  0  2832.27  2892.93  169.57  o
  11  2  14  1  154.37  11.30  65.94  <
  11  2  -14  1  133.81  167.59  69.65  <
  11  2  14  2  36.23  -20.71  60.25  <
  11  2  -14  2  38.64  65.90  67.78  <
  12  2  14  -2  18.71  -52.72  48.94  <
  12  2  -14  -2  14.04  35.78  60.25  <
  12  2  14  -1  286.59  242.95  75.37  o
  12  2  -14  -1  279.67  163.85  73.53  <
  12  2  14  0  6511.62  6694.78  294.09  o
  12  2  -14  0  6509.76  6743.96  263.34  o
  12  2  14  1  4058.07  4219.21  227.74  o
  12  2  -14  1  4068.49  4368.44  206.10  o
  12  2  14  2  39.38  1.88  71.55  <
  12  2  -14  2  31.67  15.06  69.67  <
  13  2  14  -2  0.58  35.77  62.13  <
  13  2  -14  -2  0.17  -82.85  58.35  <
  13  2  14  -1  11.68  -48.96  80.96  <
  13  2  -14  -1  13.28  131.80  73.39  <
  13  2  14  0  1749.45  1429.08  170.45  o
  13  2  -14  0  1622.03  1715.49  161.86  o
  13  2  14  1  135.10  114.87  86.63  <
  13  2  -14  1  123.23  222.20  88.45  <
  13  2  14  2  18.17  -32.01  73.43  <
  13  2  -14  2  19.22  47.07  75.31  <
  14  2  14  -2  63.38  28.24  71.56  <
  14  2  -14  -2  59.10  -41.43  71.55  <
  14  2  14  -1  603.72  561.35  150.74  o
  14  2  -14  -1  604.53  480.35  107.53  o
  14  2  14  0  436.25  171.40  120.69  <
  14  2  -14  0  435.07  333.38  101.81  o
  14  2  14  1  224.04  141.24  92.32  <
  14  2  -14  1  217.62  171.37  84.77  <
  15  2  14  -2  5.73  109.21  86.59  <
  15  2  -14  -2  4.08  13.18  92.26  <
  0  3  14  -2  174.71  278.72  77.13  o
  0  3  -14  -2  180.86  252.35  75.27  o
  0  3  14  -1  1859.65  1761.93  141.81  o
  0  3  -14  -1  1860.23  1992.08  141.00  o
  0  3  14  0  924.04  832.98  122.67  o
  0  3  -14  0  777.67  993.03  118.26  o
  0  3  14  1  168.12  90.39  73.48  <
  0  3  -14  1  167.52  111.11  60.29  <
  0  3  14  2  85.82  60.26  82.86  <
  0  3  -14  2  91.39  60.26  56.50  <
  1  3  14  -2  0.19  -13.18  37.66  <
  1  3  -14  -2  0.65  3.77  33.89  <
  1  3  14  -1  296.16  308.89  64.02  o
  1  3  -14  -1  316.71  190.23  49.13  o
  1  3  14  0  5317.25  5440.99  174.99  o
  1  3  -14  0  5573.50  5201.92  167.86  o
  1  3  14  1  1033.59  908.41  100.20  o
  1  3  -14  1  1029.06  836.79  81.61  o
  1  3  14  2  136.45  165.71  60.24  <
  1  3  -14  2  128.13  48.96  41.47  <
  2  3  14  -2  12.50  30.13  43.30  <
  2  3  -14  -2  11.66  35.78  37.65  <
  2  3  14  -1  55.30  33.89  43.31  <
  2  3  -14  -1  50.08  39.54  35.78  <
  2  3  14  0  4190.81  4045.48  169.19  o
  2  3  -14  0  4196.21  4213.74  149.21  o
  2  3  14  1  16.42  1.88  50.84  <
  2  3  -14  1  20.22  7.53  41.43  <
  2  3  14  2  14.41  3.77  48.96  <
  2  3  -14  2  15.06  22.59  39.54  <
  3  3  14  -2  33.39  41.42  39.54  <
  3  3  -14  -2  36.81  -3.77  35.78  <
  3  3  14  -1  895.47  929.08  94.14  o
  3  3  -14  -1  883.35  906.46  80.97  o
  3  3  14  0  4043.59  4018.22  170.26  o
  3  3  -14  0  3957.09  3721.19  143.42  o
  3  3  14  1  946.38  893.25  100.01  o
  3  3  -14  1  963.31  957.33  90.47  o
  3  3  14  2  53.25  47.07  54.61  <
  3  3  -14  2  48.94  96.03  54.59  <
  4  3  14  -2  80.02  79.09  43.31  <
  4  3  -14  -2  77.13  84.74  43.31  <
  4  3  14  -1  2932.99  2992.80  126.13  o
  4  3  -14  -1  2954.19  2975.86  120.71  o
  4  3  14  0  6603.85  6641.55  202.37  o
  4  3  -14  0  6730.97  6549.49  213.69  o
  4  3  14  1  279.34  226.00  60.32  o
  4  3  -14  1  281.83  171.38  60.37  <
  4  3  14  2  64.00  3.77  47.08  <
  4  3  -14  2  65.06  47.07  54.61  <
  5  3  14  -2  2.26  13.18  37.66  <
  5  3  -14  -2  1.90  52.72  45.18  <
  5  3  14  -1  478.69  329.65  58.65  o
  5  3  -14  -1  469.27  388.05  73.59  o
  5  3  14  0  3474.66  3307.24  144.59  o
  5  3  -14  0  3368.20  3633.65  166.59  o
  5  3  14  1  861.66  917.65  97.85  o
  5  3  -14  1  869.82  912.00  105.43  o
  5  3  14  2  98.03  50.84  52.74  <
  5  3  -14  2  104.10  180.77  67.74  <
  6  3  14  -2  13.30  16.95  39.54  <
  6  3  -14  -2  14.55  3.77  39.54  <
  6  3  14  -1  48.48  5.65  41.43  <
  6  3  -14  -1  53.86  56.49  48.96  <
  6  3  14  0  16331.70  16078.30  354.49  o
  6  3  -14  0  16342.20  15448.20  395.39  o
  6  3  14  1  202.47  259.88  65.86  o
  6  3  -14  1  193.86  152.54  60.29  <
  6  3  14  2  8.94  -16.95  45.19  <
  6  3  -14  2  11.01  37.66  56.48  <
  7  3  14  -2  38.17  -1.88  45.19  <
  7  3  -14  -2  42.77  -1.88  43.31  <
  7  3  14  -1  714.16  687.68  90.49  o
  7  3  -14  -1  752.32  621.76  85.06  o
  7  3  14  0  3650.83  3664.13  169.91  o
  7  3  -14  0  3659.49  3741.59  161.93  o
  7  3  14  1  806.16  699.01  96.31  o
  7  3  -14  1  810.45  796.99  98.00  o
  7  3  14  2  56.43  13.18  56.49  <
  7  3  -14  2  52.59  5.65  48.96  <
  8  3  14  -2  135.54  139.35  54.61  <
  8  3  -14  -2  135.61  62.14  50.88  <
  8  3  14  -1  1951.03  2248.12  132.63  o
  8  3  -14  -1  1949.94  2412.20  129.90  o
  8  3  14  0  686.44  593.45  88.72  o
  8  3  -14  0  678.62  469.10  79.51  o
  8  3  14  1  39.24  129.92  65.87  <
  8  3  -14  1  32.89  11.30  56.49  <
  8  3  14  2  51.23  103.56  67.77  <
  8  3  -14  2  55.64  18.83  60.26  <
  9  3  14  -2  11.61  -15.06  45.19  <
  9  3  -14  -2  8.49  -1.88  43.31  <
  9  3  14  -1  496.90  399.33  75.50  o
  9  3  -14  -1  441.13  414.39  84.80  o
  9  3  14  0  2324.40  2399.48  156.27  o
  9  3  -14  0  2256.77  2614.38  162.65  o
  9  3  14  1  562.36  719.58  105.22  o
  9  3  -14  1  600.05  499.20  96.22  o
  9  3  14  2  118.44  128.05  73.43  <
  9  3  -14  2  122.95  129.93  69.67  <
  10  3  14  -2  11.31  -15.06  48.95  <
  10  3  -14  -2  9.36  -18.83  50.84  <
  10  3  14  -1  36.30  24.48  58.37  <
  10  3  -14  -1  38.24  64.02  67.78  <
  10  3  14  0  143.32  186.43  73.41  <
  10  3  -14  0  161.01  177.01  73.43  <
  10  3  14  1  533.25  395.57  92.47  o
  10  3  -14  1  523.70  395.56  88.70  o
  10  3  14  2  14.48  9.41  67.78  <
  10  3  -14  2  14.79  79.08  65.89  <
  11  3  14  -2  65.97  28.24  62.15  <
  11  3  -14  -2  64.11  41.43  60.26  <
  11  3  14  -1  1109.61  993.13  120.87  o
  11  3  -14  -1  1141.58  1096.80  118.84  o
  11  3  14  0  3123.08  2976.29  179.95  o
  11  3  -14  0  3167.79  3180.23  184.91  o
  11  3  14  1  469.45  410.61  99.90  o
  11  3  -14  1  504.56  504.80  101.71  o
  11  3  14  2  78.99  77.20  77.20  <
  11  3  -14  2  79.25  75.32  73.44  <
  12  3  14  -2  14.53  45.19  73.43  <
  12  3  -14  -2  15.33  99.79  71.53  <
  12  3  14  -1  197.89  154.42  84.77  <
  12  3  -14  -1  203.09  131.82  75.37  <
  12  3  14  0  31.04  101.68  69.65  <
  12  3  -14  0  12.10  62.14  90.37  <
  12  3  14  1  1408.62  1349.52  143.40  o
  12  3  -14  1  1415.57  1639.78  167.19  o
  13  3  14  -2  42.12  -24.48  73.43  <
  13  3  -14  -2  38.60  -13.18  67.79  <
  13  3  14  -1  817.82  653.75  128.35  o
  13  3  -14  -1  856.71  798.84  122.57  o
  13  3  14  0  1430.30  1475.81  182.73  o
  13  3  -14  0  1482.53  1251.57  173.88  o
  14  3  14  -2  33.25  118.62  101.66  <
  14  3  -14  -2  33.09  13.18  82.85  <
  0  4  14  -2  53.93  -26.36  52.72  <
  0  4  -14  -2  52.73  -7.53  48.96  <
  0  4  14  -1  543.63  576.44  128.06  o
  0  4  -14  -1  491.28  578.30  105.37  o
  0  4  14  0  3817.08  3955.56  265.81  o
  0  4  -14  0  3974.76  3906.97  213.82  o
  0  4  14  1  1807.61  1674.46  187.01  o
  0  4  -14  1  1867.76  1710.37  149.47  o
  0  4  14  2  88.80  -20.71  82.86  <
  0  4  -14  2  76.27  -18.83  64.03  <
  1  4  14  -2  111.21  116.75  54.61  <
  1  4  -14  -2  107.10  69.67  41.45  <
  1  4  14  -1  1568.67  1480.13  113.45  o
  1  4  -14  -1  1547.38  1685.62  97.43  o
  1  4  14  0  3464.30  3148.00  175.31  o
  1  4  -14  0  3302.38  3583.73  141.66  o
  1  4  14  1  860.47  989.21  120.32  o
  1  4  -14  1  908.03  976.05  94.03  o
  1  4  14  2  229.10  56.50  65.99  <
  1  4  -14  2  224.96  56.50  54.71  <
  2  4  14  -2  21.74  16.95  47.07  <
  2  4  -14  -2  22.88  7.53  35.78  <
  2  4  14  -1  88.84  -15.06  48.97  <
  2  4  -14  -1  89.26  30.13  39.56  <
  2  4  14  0  302.68  305.11  77.22  o
  2  4  -14  0  293.83  423.75  67.61  o
  2  4  14  1  11.95  52.72  60.25  <
  2  4  -14  1  8.90  26.36  50.84  <
  2  4  14  2  6.12  13.18  62.14  <
  2  4  -14  2  5.63  1.88  52.72  <
  3  4  14  -2  54.69  88.50  54.59  <
  3  4  -14  -2  54.00  80.97  45.18  <
  3  4  14  -1  1680.36  1687.66  122.54  o
  3  4  -14  -1  1672.02  1861.12  114.23  o
  3  4  14  0  2587.53  2790.80  153.77  o
  3  4  -14  0  2892.60  2578.23  141.27  o
  3  4  14  1  897.93  1041.98  118.39  o
  3  4  -14  1  882.22  983.56  103.38  o
  3  4  14  2  186.08  86.63  65.96  <
  3  4  -14  2  189.61  84.74  58.44  <
  4  4  14  -2  86.01  -1.88  41.44  <
  4  4  -14  -2  79.11  20.71  43.32  <
  4  4  14  -1  591.40  600.95  80.99  o
  4  4  -14  -1  518.92  700.75  93.86  o
  4  4  14  0  2961.22  2997.31  147.03  o
  4  4  -14  0  2916.78  2581.97  156.31  o
  4  4  14  1  1752.39  1827.04  124.15  o
  4  4  -14  1  1709.48  1695.00  128.26  o
  4  4  14  2  62.87  -41.43  52.72  <
  4  4  -14  2  56.14  -7.53  56.49  <
  5  4  14  -2  114.18  82.86  48.98  <
  5  4  -14  -2  116.19  169.48  60.22  <
  5  4  14  -1  1149.89  1149.67  103.66  o
  5  4  -14  -1  1155.18  1240.14  116.62  o
  5  4  14  0  1591.62  1557.27  118.90  o
  5  4  -14  0  1516.97  1587.34  131.74  o
  5  4  14  1  815.62  847.84  99.78  o
  5  4  -14  1  795.85  958.98  116.47  o
  5  4  14  2  165.95  133.70  71.58  <
  5  4  -14  2  169.18  244.81  77.15  o
  6  4  14  -2  4.32  41.42  45.18  <
  6  4  -14  -2  3.73  1.88  48.96  <
  6  4  14  -1  84.93  92.27  50.84  <
  6  4  -14  -1  77.82  65.91  58.38  <
  6  4  14  0  182.55  224.10  65.88  o
  6  4  -14  0  202.30  186.44  69.69  <
  6  4  14  1  217.85  222.22  77.21  <
  6  4  -14  1  226.27  282.48  79.04  o
  6  4  14  2  16.55  37.66  67.78  <
  6  4  -14  2  15.56  -43.31  69.66  <
  7  4  14  -2  126.70  112.99  58.38  <
  7  4  -14  -2  120.89  43.31  48.99  <
  7  4  14  -1  989.55  887.54  103.88  o
  7  4  -14  -1  1005.68  959.16  109.41  o
  7  4  14  0  1535.01  1157.47  131.06  o
  7  4  -14  0  1223.60  1421.05  140.85  o
  7  4  14  1  809.20  991.00  129.65  o
  7  4  -14  1  793.86  981.57  123.97  o
  7  4  14  2  140.47  79.09  75.34  <
  7  4  -14  2  135.46  45.19  73.46  <
  8  4  14  -2  35.44  -3.77  52.72  <
  8  4  -14  -2  33.99  -37.66  48.95  <
  8  4  14  -1  1004.65  1207.88  133.33  o
  8  4  -14  -1  988.80  806.50  109.68  o
  8  4  14  0  870.71  819.60  118.80  o
  8  4  -14  0  948.86  855.45  115.13  o
  8  4  14  1  564.73  717.68  112.78  o
  8  4  -14  1  568.90  710.15  114.69  o
  8  4  14  2  60.87  16.95  71.56  <
  8  4  -14  2  54.36  35.78  73.44  <
  9  4  14  -2  59.90  60.26  64.02  <
  9  4  -14  -2  55.08  22.60  62.14  <
  9  4  14  -1  582.98  693.21  110.97  o
  9  4  -14  -1  611.19  467.17  92.52  o
  9  4  14  0  1738.68  2130.42  164.65  o
  9  4  -14  0  1853.17  1808.18  160.40  o
  9  4  14  1  1304.42  1307.96  148.88  o
  9  4  -14  1  1285.34  1362.60  148.70  o
  9  4  14  2  183.97  64.03  81.02  <
  9  4  -14  2  177.95  122.40  86.65  <
  10  4  14  -2  30.34  54.60  67.78  <
  10  4  -14  -2  32.88  -5.65  60.26  <
  10  4  14  -1  174.85  73.44  71.60  <
  10  4  -14  -1  181.57  146.88  73.46  <
  10  4  14  0  254.92  186.44  86.67  <
  10  4  -14  0  261.62  178.91  79.15  <
  10  4  14  1  121.48  124.28  84.74  <
  10  4  -14  1  124.12  75.32  79.10  <
  11  4  14  -2  39.39  41.42  67.79  <
  11  4  -14  -2  37.58  62.14  69.66  <
  11  4  14  -1  606.05  623.51  114.88  o
  11  4  -14  -1  637.68  478.48  101.94  o
  11  4  14  0  4858.28  5143.05  247.86  o
  11  4  -14  0  5015.48  5062.37  334.28  o
  12  4  14  -2  43.49  -43.31  69.66  <
  12  4  -14  -2  42.57  41.42  92.26  <
  12  4  14  -1  230.43  84.74  82.92  <
  12  4  -14  -1  200.27  318.25  99.72  o
  13  4  14  -2  77.51  5.65  86.62  <
  13  4  -14  -2  82.15  16.95  96.04  <
  0  5  14  -2  76.21  -105.45  62.10  <
  0  5  -14  -2  73.01  -16.95  52.73  <
  0  5  14  -1  1212.98  964.97  170.03  o
  0  5  -14  -1  1189.58  1240.11  148.78  o
  0  5  14  0  2016.14  1486.00  216.07  o
  0  5  -14  0  1982.31  1817.85  166.44  o
  0  5  14  1  84.10  39.54  107.34  <
  0  5  -14  1  105.41  43.31  97.93  <
  0  5  14  2  62.09  -50.84  107.33  <
  0  5  -14  2  59.36  69.67  105.44  <
  1  5  14  -2  28.63  -3.77  56.49  <
  1  5  -14  -2  26.95  1.88  41.43  <
  1  5  14  -1  49.26  60.25  65.90  <
  1  5  -14  -1  60.29  52.72  47.08  <
  1  5  14  0  3558.32  3538.09  198.34  o
  1  5  -14  0  3666.31  3642.23  175.73  o
  1  5  14  1  1631.52  1592.95  160.34  o
  1  5  -14  1  1652.51  1815.43  142.74  o
  1  5  14  2  125.07  167.59  90.37  <
  1  5  -14  2  126.89  143.11  77.20  <
  2  5  14  -2  8.05  79.08  60.24  <
  2  5  -14  -2  7.87  11.30  47.07  <
  2  5  14  -1  5.29  -18.83  60.25  <
  2  5  -14  -1  7.42  5.65  54.60  <
  2  5  14  0  2095.05  1863.25  155.42  o
  2  5  -14  0  2100.96  1823.65  134.95  o
  2  5  14  1  36.93  20.71  75.32  <
  2  5  -14  1  39.22  11.30  58.37  <
  2  5  14  2  11.95  15.06  82.85  <
  2  5  -14  2  12.59  5.65  67.78  <
  3  5  14  -2  43.25  22.60  54.61  <
  3  5  -14  -2  54.03  5.65  47.08  <
  3  5  14  -1  476.04  527.40  103.53  o
  3  5  -14  -1  508.90  363.54  77.44  o
  3  5  14  0  1857.18  1608.35  151.58  o
  3  5  -14  0  1722.62  1862.71  144.70  o
  3  5  14  1  1305.74  1140.23  141.72  o
  3  5  -14  1  1275.00  1194.86  135.89  o
  3  5  14  2  40.71  128.04  92.24  <
  3  5  -14  2  38.35  33.89  69.67  <
  4  5  14  -2  11.47  -37.66  45.18  <
  4  5  -14  -2  8.92  -16.95  50.84  <
  4  5  14  -1  1323.31  1227.01  120.90  o
  4  5  -14  -1  1293.99  1306.15  128.13  o
  4  5  14  0  333.28  408.69  101.62  o
  4  5  -14  0  358.24  348.43  92.30  o
  4  5  14  1  89.47  -41.43  71.56  <
  4  5  -14  1  56.58  -33.89  60.25  <
  5  5  14  -2  20.56  58.37  52.71  <
  5  5  -14  -2  24.34  77.20  60.24  <
  5  5  14  -1  362.78  395.52  92.25  o
  5  5  -14  -1  330.63  244.84  81.06  o
  5  5  14  0  1861.06  1970.32  159.91  o
  5  5  -14  0  1976.10  1885.64  158.68  o
  5  5  14  1  1505.73  1458.93  167.87  o
  5  5  -14  1  1534.57  1236.54  160.88  o
  6  5  14  -2  2.11  11.30  54.60  <
  6  5  -14  -2  2.57  18.83  54.60  <
  6  5  14  -1  87.00  26.36  62.15  <
  6  5  -14  -1  76.79  77.20  69.67  <
  6  5  14  0  5620.92  6002.72  247.15  o
  6  5  -14  0  5602.43  5860.84  289.78  o
  6  5  14  1  20.62  58.37  73.43  <
  6  5  -14  1  16.88  22.59  77.20  <
  7  5  14  -2  10.27  0.00  62.14  <
  7  5  -14  -2  7.66  -37.66  54.60  <
  7  5  14  -1  653.83  681.93  114.87  o
  7  5  -14  -1  636.39  615.99  113.06  o
  7  5  14  0  2728.89  2916.68  189.79  o
  7  5  -14  0  2865.62  2798.10  185.18  o
  8  5  14  -2  20.34  88.50  71.53  <
  8  5  -14  -2  14.15  1.88  62.14  <
  8  5  14  -1  1262.83  1049.73  134.28  o
  8  5  -14  -1  1229.66  1257.01  143.16  o
  8  5  14  0  608.66  744.06  127.89  o
  8  5  -14  0  670.20  478.48  113.27  o
  9  5  14  -2  11.59  73.43  73.42  <
  9  5  -14  -2  13.53  11.30  65.90  <
  9  5  14  -1  284.14  190.21  86.69  <
  9  5  -14  -1  271.50  171.38  88.57  <
  10  5  14  -2  9.34  48.96  73.43  <
  10  5  -14  -2  8.36  71.55  77.19  <
  0  6  14  -2  23.73  -13.18  96.03  <
  0  6  -14  -2  26.43  37.66  65.90  <
  0  6  14  -1  853.52  943.91  192.06  o
  0  6  -14  -1  806.68  1032.43  188.09  o
  1  6  14  -2  64.55  97.91  79.08  <
  1  6  -14  -2  62.78  -60.26  52.71  <
  1  6  14  -1  2274.92  2051.96  179.87  o
  1  6  -14  -1  2173.77  2204.56  152.64  o
  2  6  14  -2  32.37  18.83  71.55  <
  2  6  -14  -2  33.81  47.07  60.25  <
  2  6  14  -1  10.11  88.50  94.13  <
  2  6  -14  -1  9.50  16.95  64.02  <
  3  6  14  -2  49.52  13.18  69.67  <
  3  6  -14  -2  48.50  3.77  60.26  <
  3  6  14  -1  1953.92  1872.33  181.24  o
  3  6  -14  -1  1978.44  2381.47  170.17  o
  4  6  14  -2  55.34  -7.53  69.67  <
  4  6  -14  -2  53.32  -18.83  62.14  <
  4  6  14  -1  615.67  891.00  142.75  o
  4  6  -14  -1  581.67  546.26  105.54  o
  5  6  14  -2  55.34  22.60  71.56  <
  5  6  -14  -2  60.04  65.90  84.73  <
  6  6  14  -2  1.98  75.32  69.65  <
  6  6  -14  -2  1.70  -5.65  71.55  <
  7  6  14  -2  96.95  143.11  86.60  <
  7  6  -14  -2  98.65  1.88  73.45  <
  1  0  15  1  673.42  721.70  69.59  o
  1  0  -15  1  679.74  770.69  80.80  o
  1  0  15  2  57.82  56.49  39.54  <
  1  0  -15  2  58.65  33.89  37.67  <
  2  0  15  0  7731.24  7653.91  215.35  o
  2  0  -15  0  7708.49  8170.29  294.84  o
  2  0  15  1  856.59  917.84  71.41  o
  2  0  -15  1  878.72  838.71  84.92  o
  2  0  15  2  60.58  58.37  48.96  <
  2  0  -15  2  60.19  79.09  43.30  <
  3  0  15  1  980.87  1142.26  74.77  o
  3  0  -15  1  1026.06  965.12  83.13  o
  3  0  15  2  68.20  16.95  41.44  <
  3  0  -15  2  69.63  22.60  43.32  <
  4  0  15  0  5132.34  5111.71  236.77  o
  4  0  -15  0  5155.74  5623.02  247.17  o
  4  0  15  1  192.00  295.67  52.59  o
  4  0  -15  1  205.56  195.86  52.74  o
  4  0  15  2  1.22  3.77  37.66  <
  4  0  -15  2  0.69  -54.60  35.76  <
  5  0  15  1  721.64  719.80  75.38  o
  5  0  -15  1  713.36  821.54  73.18  o
  5  0  15  2  21.46  16.95  41.42  <
  5  0  -15  2  20.92  -35.78  30.12  <
  6  0  15  0  7790.62  7320.54  302.92  o
  6  0  -15  0  7819.67  7666.11  295.19  o
  6  0  15  1  918.46  806.61  81.35  o
  6  0  -15  1  923.26  849.96  73.73  o
  6  0  15  2  64.48  -18.83  39.55  <
  6  0  -15  2  61.14  -3.77  33.90  <
  7  0  15  1  246.04  231.65  52.75  o
  7  0  -15  1  229.39  239.18  48.95  o
  7  0  15  2  57.60  37.66  45.20  <
  7  0  -15  2  55.48  -26.36  35.78  <
  8  0  15  0  63.96  -28.25  52.73  <
  8  0  -15  0  52.47  148.76  80.93  <
  8  0  15  1  438.57  331.52  66.09  o
  8  0  -15  1  411.27  416.27  71.57  o
  8  0  15  2  67.50  111.10  52.70  <
  8  0  -15  2  65.17  58.37  47.08  <
  9  0  15  1  645.33  636.78  84.79  o
  9  0  -15  1  676.46  561.43  88.76  o
  9  0  15  2  10.08  41.42  48.95  <
  9  0  -15  2  11.51  5.65  45.19  <
  10  0  15  0  6684.32  7002.01  342.91  o
  10  0  -15  0  6701.25  6871.46  341.82  o
  10  0  15  1  1497.97  1674.10  121.92  o
  10  0  -15  1  1499.64  1555.33  131.79  o
  10  0  15  2  3.45  13.18  45.19  <
  10  0  -15  2  2.37  -22.59  45.19  <
  11  0  15  1  292.18  399.27  78.97  o
  11  0  -15  1  302.31  387.97  84.65  o
  11  0  15  2  20.76  67.79  56.48  <
  11  0  -15  2  24.88  16.95  52.72  <
  12  0  15  0  10584.60  10826.30  457.89  o
  12  0  -15  0  10801.10  10894.50  464.59  o
  12  0  15  1  900.94  1015.59  116.56  o
  12  0  -15  1  895.60  791.36  109.49  o
  12  0  15  2  14.98  65.90  62.13  <
  12  0  -15  2  12.38  16.95  69.67  <
  13  0  15  1  179.26  73.44  65.96  <
  13  0  -15  1  171.32  152.53  79.10  <
  13  0  15  2  7.38  3.77  62.14  <
  13  0  -15  2  7.07  82.85  79.07  <
  14  0  15  0  182.56  -33.90  84.77  <
  14  0  -15  0  148.56  220.32  195.82  <
  14  0  15  1  551.29  516.12  99.88  o
  14  0  -15  1  558.38  725.21  169.35  o
  14  0  15  2  40.28  65.90  71.55  <
  14  0  -15  2  40.85  35.78  101.68  <
  1  1  15  -2  2.32  41.42  33.88  <
  1  1  -15  -2  2.21  -1.88  35.77  <
  1  1  15  -1  126.18  92.27  41.45  <
  1  1  -15  -1  143.60  122.41  43.33  <
  1  1  15  0  272.92  355.97  60.15  o
  1  1  -15  0  281.59  258.04  52.77  o
  1  1  15  1  1.54  3.77  39.54  <
  1  1  -15  1  3.40  13.18  37.66  <
  1  1  15  2  73.88  48.96  43.32  <
  1  1  -15  2  72.85  -5.65  37.67  <
  2  1  15  -2  17.91  15.06  33.89  <
  2  1  -15  -2  17.52  13.18  35.78  <
  2  1  15  -1  1326.24  1218.14  90.91  o
  2  1  -15  -1  1298.70  1336.89  94.14  o
  2  1  15  0  43060.90  41708.50  726.95  o
  2  1  -15  0  42758.00  40847.90  668.90  o
  2  1  15  1  1845.56  1941.30  103.29  o
  2  1  -15  1  1839.45  1841.30  96.21  o
  2  1  15  2  37.42  -15.06  35.78  <
  2  1  -15  2  40.81  -1.88  35.78  <
  3  1  15  -2  11.82  -3.77  30.13  <
  3  1  -15  -2  11.94  7.53  39.54  <
  3  1  15  -1  160.55  43.31  43.37  <
  3  1  -15  -1  149.21  133.71  50.86  <
  3  1  15  0  197.66  165.73  50.88  o
  3  1  -15  0  203.60  105.46  45.28  <
  3  1  15  1  135.46  128.05  47.08  <
  3  1  -15  1  146.82  145.01  48.96  <
  3  1  15  2  80.16  -33.89  32.02  <
  3  1  -15  2  77.09  5.65  37.68  <
  4  1  15  -2  45.90  -20.71  35.78  <
  4  1  -15  -2  47.83  1.88  37.67  <
  4  1  15  -1  218.81  227.88  56.49  o
  4  1  -15  -1  217.35  301.33  58.28  o
  4  1  15  0  4805.69  4670.25  163.78  o
  4  1  -15  0  4820.31  4626.79  171.73  o
  4  1  15  1  49.48  22.60  33.90  <
  4  1  -15  1  51.12  45.19  45.19  <
  4  1  15  2  35.96  18.83  35.78  <
  4  1  -15  2  37.99  -3.77  39.54  <
  5  1  15  -2  12.91  82.85  45.17  <
  5  1  -15  -2  13.37  15.06  37.66  <
  5  1  15  -1  484.63  489.79  67.81  o
  5  1  -15  -1  441.59  389.93  50.97  o
  5  1  15  0  114.25  109.22  45.20  <
  5  1  -15  0  94.20  90.39  39.55  <
  5  1  15  1  237.66  192.10  54.66  o
  5  1  -15  1  241.23  210.93  56.53  o
  5  1  15  2  23.55  20.71  39.54  <
  5  1  -15  2  25.44  -18.83  37.66  <
  6  1  15  -2  18.37  -13.18  35.77  <
  6  1  -15  -2  19.21  7.53  41.43  <
  6  1  15  -1  317.16  299.47  58.41  o
  6  1  -15  -1  310.28  222.25  49.09  o
  6  1  15  0  22122.10  21665.40  459.74  o
  6  1  -15  0  22073.60  21991.40  372.50  o
  6  1  15  1  1907.51  2054.20  127.66  o
  6  1  -15  1  1921.57  1839.18  111.66  o
  6  1  15  2  52.67  -26.36  39.54  <
  6  1  -15  2  53.46  32.01  45.20  <
  7  1  15  -2  12.52  48.96  45.18  <
  7  1  -15  -2  13.86  11.30  37.66  <
  7  1  15  -1  118.56  79.09  47.10  <
  7  1  -15  -1  124.50  60.26  43.34  <
  7  1  15  0  46.83  30.13  48.96  <
  7  1  -15  0  47.93  15.06  41.43  <
  7  1  15  1  58.68  11.30  48.96  <
  7  1  -15  1  49.04  101.68  52.70  <
  7  1  15  2  100.29  92.27  54.61  <
  7  1  -15  2  96.73  161.94  56.45  <
  8  1  15  -2  2.56  -1.88  43.31  <
  8  1  -15  -2  0.68  13.18  43.31  <
  8  1  15  -1  19.68  11.30  41.42  <
  8  1  -15  -1  26.27  54.60  45.18  <
  8  1  15  0  13032.60  12317.30  344.20  o
  8  1  -15  0  12971.40  12490.00  295.09  o
  8  1  15  1  173.43  96.04  54.66  <
  8  1  -15  1  169.01  82.86  49.01  <
  8  1  15  2  21.71  1.88  48.96  <
  8  1  -15  2  15.61  15.06  47.07  <
  9  1  15  -2  12.03  35.78  47.07  <
  9  1  -15  -2  12.00  13.18  52.72  <
  9  1  15  -1  555.41  550.07  81.01  o
  9  1  -15  -1  572.08  625.43  84.67  o
  9  1  15  0  47.95  24.48  52.73  <
  9  1  -15  0  59.24  47.07  48.96  <
  9  1  15  1  14.95  94.15  56.46  <
  9  1  -15  1  21.08  22.59  45.19  <
  9  1  15  2  66.73  37.66  56.50  <
  9  1  -15  2  70.94  -65.90  39.52  <
  10  1  15  -2  3.72  -28.24  52.72  <
  10  1  -15  -2  1.97  77.20  60.24  <
  10  1  15  -1  115.93  39.54  48.99  <
  10  1  -15  -1  94.04  126.16  64.01  <
  10  1  15  0  21525.30  21868.00  565.67  o
  10  1  -15  0  21362.20  22031.80  459.13  o
  10  1  15  1  156.86  128.05  60.28  <
  10  1  -15  1  129.19  33.90  52.76  <
  10  1  15  2  30.19  -16.95  54.60  <
  10  1  -15  2  32.38  11.30  48.96  <
  11  1  15  -2  124.95  64.02  60.28  <
  11  1  -15  -2  118.77  11.30  58.40  <
  11  1  15  -1  664.43  753.56  99.67  o
  11  1  -15  -1  659.63  646.17  97.99  o
  11  1  15  0  160.13  199.61  67.76  <
  11  1  -15  0  153.98  122.40  64.04  <
  11  1  15  1  59.68  73.44  60.25  <
  11  1  -15  1  61.71  71.55  64.02  <
  11  1  15  2  70.69  105.45  67.77  <
  11  1  -15  2  66.43  69.67  65.90  <
  12  1  15  -2  214.34  109.23  64.09  <
  12  1  -15  -2  221.95  143.12  65.97  <
  12  1  15  -1  73.77  94.15  62.13  <
  12  1  -15  -1  66.75  205.24  84.66  <
  12  1  15  0  193.63  190.20  73.45  <
  12  1  -15  0  218.80  99.81  69.74  <
  12  1  15  1  6.37  -32.01  67.78  <
  12  1  -15  1  5.06  22.59  65.90  <
  12  1  15  2  128.91  50.84  62.17  <
  12  1  -15  2  135.19  -7.53  65.93  <
  13  1  15  -2  59.55  20.71  64.03  <
  13  1  -15  -2  56.84  146.87  112.95  <
  13  1  15  -1  592.63  599.02  99.83  o
  13  1  -15  -1  572.26  730.87  125.98  o
  13  1  15  0  186.71  209.03  75.31  <
  13  1  -15  0  184.16  154.42  88.52  <
  13  1  15  1  160.34  250.45  95.98  <
  13  1  -15  1  139.57  173.24  79.07  <
  13  1  15  2  43.76  101.68  97.90  <
  13  1  -15  2  45.56  -16.95  69.67  <
  14  1  15  -2  0.40  -50.84  62.13  <
  14  1  -15  -2  0.77  75.32  111.08  <
  14  1  15  -1  88.86  37.66  69.68  <
  14  1  -15  -1  90.95  82.85  118.63  <
  14  1  15  0  8989.53  9225.49  362.28  o
  14  1  -15  0  8823.79  8680.55  464.97  o
  14  1  15  1  374.26  310.76  131.88  <
  14  1  -15  1  387.24  367.27  96.07  o
  14  1  15  2  44.68  -7.53  103.56  <
  14  1  -15  2  44.64  -69.67  73.42  <
  15  1  15  -2  26.15  -47.07  124.27  <
  1  2  15  -2  58.78  71.55  45.19  <
  1  2  -15  -2  59.04  96.03  45.17  <
  1  2  15  -1  1172.36  1016.13  90.98  o
  1  2  -15  -1  1144.54  1136.76  90.51  o
  1  2  15  0  4204.62  4523.20  166.05  o
  1  2  -15  0  4521.11  4015.82  151.32  o
  1  2  15  1  53.74  56.49  47.07  <
  1  2  -15  1  58.02  9.41  37.67  <
  1  2  15  2  162.43  90.39  47.13  <
  1  2  -15  2  159.11  122.41  48.99  <
  2  2  15  -2  144.95  103.57  45.22  <
  2  2  -15  -2  142.16  205.27  48.90  o
  2  2  15  -1  515.51  388.08  64.28  o
  2  2  -15  -1  494.91  438.94  66.04  o
  2  2  15  0  7391.13  7337.40  226.20  o
  2  2  -15  0  7308.52  7253.34  201.59  o
  2  2  15  1  2944.91  2881.52  128.79  o
  2  2  -15  1  2964.53  2985.43  122.61  o
  2  2  15  2  87.79  60.26  48.97  <
  2  2  -15  2  81.61  -13.18  33.91  <
  3  2  15  -2  59.40  11.30  37.67  <
  3  2  -15  -2  64.70  92.27  43.30  <
  3  2  15  -1  1073.03  1117.78  90.33  o
  3  2  -15  -1  1129.75  1042.44  88.88  o
  3  2  15  0  3300.02  3354.97  147.01  o
  3  2  -15  0  3188.49  3178.94  132.28  o
  3  2  15  1  271.33  146.90  56.61  <
  3  2  -15  1  276.50  244.84  52.78  o
  3  2  15  2  189.60  58.38  47.16  <
  3  2  -15  2  195.13  114.88  47.15  <
  4  2  15  -2  0.47  43.31  39.53  <
  4  2  -15  -2  0.84  16.95  43.31  <
  4  2  15  -1  100.41  22.60  33.93  <
  4  2  -15  -1  101.60  45.19  43.33  <
  4  2  15  0  4631.56  4516.57  159.75  o
  4  2  -15  0  4633.39  4336.90  155.47  o
  4  2  15  1  231.78  263.66  58.35  o
  4  2  -15  1  241.57  258.01  54.60  o
  4  2  15  2  3.46  5.65  43.31  <
  4  2  -15  2  2.24  -7.53  45.19  <
  5  2  15  -2  53.55  -15.06  39.55  <
  5  2  -15  -2  51.33  -20.71  39.54  <
  5  2  15  -1  1649.19  1559.65  98.45  o
  5  2  -15  -1  1627.80  1423.83  104.50  o
  5  2  15  0  6332.61  6290.50  193.57  o
  5  2  -15  0  6051.21  6288.84  215.96  o
  5  2  15  1  216.63  122.41  50.92  <
  5  2  -15  1  231.77  190.21  58.42  o
  5  2  15  2  75.64  101.68  48.95  <
  5  2  -15  2  80.43  28.25  50.85  <
  6  2  15  -2  85.02  99.80  54.60  <
  6  2  -15  -2  87.05  103.57  47.07  <
  6  2  15  -1  131.99  129.93  56.49  <
  6  2  -15  -1  119.05  216.56  60.18  o
  6  2  15  0  8367.56  8577.80  231.32  o
  6  2  -15  0  8322.69  8556.58  244.49  o
  6  2  15  1  2912.15  2984.55  133.60  o
  6  2  -15  1  2912.25  2742.92  142.47  o
  6  2  15  2  65.93  -20.71  45.20  <
  6  2  -15  2  63.14  26.36  47.08  <
  7  2  15  -2  19.30  16.95  50.84  <
  7  2  -15  -2  14.69  -33.89  35.77  <
  7  2  15  -1  764.74  761.22  96.10  o
  7  2  -15  -1  759.83  725.41  86.75  o
  7  2  15  0  4778.42  4833.04  188.71  o
  7  2  -15  0  4872.20  5039.56  186.02  o
  7  2  15  1  163.67  148.77  60.27  <
  7  2  -15  1  140.22  141.23  56.49  <
  7  2  15  2  128.24  33.90  52.76  <
  7  2  -15  2  129.32  167.60  60.23  <
  8  2  15  -2  14.89  5.65  47.07  <
  8  2  -15  -2  15.43  77.20  48.94  <
  8  2  15  -1  236.77  111.11  64.11  <
  8  2  -15  -1  240.12  190.21  60.31  o
  8  2  15  0  31.72  47.07  52.72  <
  8  2  -15  0  18.34  13.18  47.07  <
  8  2  15  1  117.75  82.86  56.51  <
  8  2  -15  1  117.11  84.74  56.51  <
  8  2  15  2  47.48  -11.30  48.96  <
  8  2  -15  2  49.00  11.30  48.96  <
  9  2  15  -2  68.80  33.89  50.85  <
  9  2  -15  -2  63.08  69.67  47.07  <
  9  2  15  -1  644.98  614.15  96.13  o
  9  2  -15  -1  590.16  546.31  81.09  o
  9  2  15  0  2086.71  2270.90  146.38  o
  9  2  -15  0  2123.38  2010.68  130.62  o
  9  2  15  1  220.54  205.27  71.57  <
  9  2  -15  1  241.12  363.47  77.08  o
  9  2  15  2  95.45  71.56  62.15  <
  9  2  -15  2  97.70  69.67  64.03  <
  10  2  15  -2  50.87  56.49  56.49  <
  10  2  -15  -2  45.57  -3.77  47.08  <
  10  2  15  -1  152.25  143.12  64.03  <
  10  2  -15  -1  158.03  47.08  56.54  <
  10  2  15  0  4156.96  4122.07  198.55  o
  10  2  -15  0  4151.45  4199.51  188.63  o
  10  2  15  1  2301.89  2727.56  162.31  o
  10  2  -15  1  2348.65  2640.88  191.37  o
  10  2  15  2  49.07  -50.84  60.25  <
  10  2  -15  2  43.00  71.55  62.13  <
  11  2  15  -2  49.27  52.72  56.49  <
  11  2  -15  -2  54.68  0.00  50.85  <
  11  2  15  -1  247.30  224.11  71.58  o
  11  2  -15  -1  262.99  141.25  71.65  <
  11  2  15  0  1608.46  1496.87  136.07  o
  11  2  -15  0  1518.24  1564.63  139.36  o
  11  2  15  1  142.67  47.08  77.23  <
  11  2  -15  1  158.60  222.21  97.89  <
  11  2  15  2  85.28  26.36  79.10  <
  11  2  -15  2  88.34  15.06  64.03  <
  12  2  15  -2  7.22  11.30  67.78  <
  12  2  -15  -2  5.29  71.55  64.00  <
  12  2  15  -1  727.41  796.90  111.02  o
  12  2  -15  -1  711.02  619.80  103.77  o
  12  2  15  0  7346.27  7622.13  323.93  o
  12  2  -15  0  7442.43  7855.56  338.30  o
  12  2  15  1  882.15  908.14  145.03  o
  12  2  -15  1  875.66  992.92  154.30  o
  12  2  15  2  36.15  -5.65  75.32  <
  12  2  -15  2  30.48  -88.50  77.18  <
  13  2  15  -2  10.86  109.21  79.06  <
  13  2  -15  -2  13.31  -28.24  62.13  <
  13  2  15  -1  802.81  766.79  165.84  o
  13  2  -15  -1  825.01  663.18  117.07  o
  13  2  15  0  2930.90  2919.04  207.60  o
  13  2  -15  0  2942.05  2954.92  190.53  o
  13  2  15  1  65.98  20.71  80.97  <
  13  2  -15  1  54.98  99.80  77.19  <
  13  2  15  2  40.55  47.07  90.38  <
  13  2  -15  2  42.21  9.41  86.62  <
  14  2  15  -2  82.86  62.14  97.92  <
  14  2  -15  -2  87.22  41.43  79.10  <
  14  2  15  -1  26.72  -22.60  92.26  <
  14  2  -15  -1  20.51  -3.77  77.20  <
  14  2  15  0  618.53  544.39  150.77  o
  14  2  -15  0  584.31  474.68  111.27  o
  1  3  15  -2  74.77  18.83  43.32  <
  1  3  -15  -2  78.98  11.30  39.56  <
  1  3  15  -1  26.81  41.42  47.07  <
  1  3  -15  -1  29.80  45.19  41.42  <
  1  3  15  0  213.32  94.16  56.57  <
  1  3  -15  0  231.15  171.38  50.91  o
  1  3  15  1  1273.37  1206.40  117.06  o
  1  3  -15  1  1281.39  1236.56  98.17  o
  1  3  15  2  15.16  -28.24  48.95  <
  1  3  -15  2  15.74  -16.95  41.42  <
  2  3  15  -2  97.45  86.62  47.08  <
  2  3  -15  -2  97.06  90.39  47.08  <
  2  3  15  -1  65.95  64.02  47.08  <
  2  3  -15  -1  73.00  71.55  43.31  <
  2  3  15  0  12469.70  12333.80  323.21  o
  2  3  -15  0  12302.50  12229.10  282.64  o
  2  3  15  1  2063.68  2020.20  130.33  o
  2  3  -15  1  2082.35  1946.67  110.06  o
  2  3  15  2  82.13  56.49  58.38  <
  2  3  -15  2  85.24  -18.83  41.44  <
  3  3  15  -2  164.52  165.72  52.73  o
  3  3  -15  -2  161.91  152.54  48.97  o
  3  3  15  -1  166.12  231.63  62.09  o
  3  3  -15  -1  165.57  82.86  47.13  <
  3  3  15  0  249.06  242.95  62.16  o
  3  3  -15  0  199.44  167.61  48.99  o
  3  3  15  1  1605.86  1663.01  118.57  o
  3  3  -15  1  1616.86  1482.01  117.37  o
  3  3  15  2  35.46  18.83  54.61  <
  3  3  -15  2  29.70  20.71  50.84  <
  4  3  15  -2  23.36  24.48  39.54  <
  4  3  -15  -2  23.45  5.65  39.54  <
  4  3  15  -1  198.66  180.79  52.75  o
  4  3  -15  -1  195.92  137.48  54.66  <
  4  3  15  0  1757.49  1667.05  113.51  o
  4  3  -15  0  1773.79  1897.15  125.87  o
  4  3  15  1  4.29  20.71  45.19  <
  4  3  -15  1  6.15  -43.31  48.95  <
  4  3  15  2  8.92  -41.42  45.18  <
  4  3  -15  2  8.22  -11.30  48.95  <
  5  3  15  -2  106.37  114.87  48.95  <
  5  3  -15  -2  102.77  80.97  50.85  <
  5  3  15  -1  636.56  599.10  77.32  o
  5  3  -15  -1  605.67  681.97  94.05  o
  5  3  15  0  446.73  357.89  69.83  o
  5  3  -15  0  493.54  421.95  81.10  o
  5  3  15  1  1657.44  1531.01  115.47  o
  5  3  -15  1  1689.07  1657.39  130.21  o
  5  3  15  2  9.65  -3.77  50.84  <
  5  3  -15  2  8.83  37.66  58.37  <
  6  3  15  -2  38.85  62.14  48.95  <
  6  3  -15  -2  38.61  43.31  45.19  <
  6  3  15  -1  94.55  18.83  45.21  <
  6  3  -15  -1  101.18  92.27  52.73  <
  6  3  15  0  3887.50  3623.22  156.58  o
  6  3  -15  0  3874.76  4135.10  181.70  o
  6  3  15  1  453.86  412.51  75.41  o
  6  3  -15  1  482.89  474.67  88.54  o
  6  3  15  2  109.31  56.49  52.75  <
  6  3  -15  2  104.91  112.98  62.14  <
  7  3  15  -2  37.65  33.89  50.84  <
  7  3  -15  -2  40.01  11.30  47.08  <
  7  3  15  -1  144.26  114.87  54.63  <
  7  3  -15  -1  147.62  18.83  49.00  <
  7  3  15  0  913.41  1008.10  110.95  o
  7  3  -15  0  994.76  887.56  102.02  o
  7  3  15  1  1009.13  832.91  104.05  o
  7  3  -15  1  965.93  1045.81  112.87  o
  7  3  15  2  50.38  52.72  56.49  <
  7  3  -15  2  54.24  18.83  52.73  <
  8  3  15  -2  8.08  3.77  48.96  <
  8  3  -15  -2  6.70  -7.53  45.19  <
  8  3  15  -1  40.08  80.97  58.36  <
  8  3  -15  -1  46.65  33.89  52.73  <
  8  3  15  0  8277.52  8350.83  270.43  o
  8  3  -15  0  8205.42  8901.87  276.63  o
  8  3  15  1  367.20  235.43  77.35  o
  8  3  -15  1  356.96  248.61  77.33  o
  8  3  15  2  39.12  28.24  67.79  <
  8  3  -15  2  32.12  86.61  69.65  <
  9  3  15  -2  82.17  11.30  54.62  <
  9  3  -15  -2  80.41  -13.18  48.97  <
  9  3  15  -1  399.67  371.05  79.14  o
  9  3  -15  -1  432.31  333.39  75.47  o
  9  3  15  0  1035.88  979.89  116.96  o
  9  3  -15  0  992.41  864.91  115.21  o
  9  3  15  1  856.68  791.33  116.94  o
  9  3  -15  1  785.23  757.37  111.21  o
  9  3  15  2  19.97  60.25  71.54  <
  9  3  -15  2  22.48  28.24  65.90  <
  10  3  15  -2  44.22  30.13  56.49  <
  10  3  -15  -2  42.41  -35.78  54.60  <
  10  3  15  -1  63.66  79.09  62.13  <
  10  3  -15  -1  70.65  22.60  60.26  <
  10  3  15  0  5400.03  5344.67  236.66  o
  10  3  -15  0  5321.01  5529.61  236.92  o
  10  3  15  1  667.82  486.02  107.62  o
  10  3  -15  1  644.82  561.37  105.62  o
  10  3  15  2  81.06  62.14  79.09  <
  10  3  -15  2  84.53  65.91  71.56  <
  11  3  15  -2  20.30  30.13  62.14  <
  11  3  -15  -2  16.48  16.95  67.78  <
  11  3  15  -1  228.76  112.99  81.04  <
  11  3  -15  -1  205.13  209.03  84.74  <
  11  3  15  0  180.64  131.82  86.65  <
  11  3  -15  0  112.04  118.63  79.09  <
  11  3  15  1  840.65  731.01  118.88  o
  11  3  -15  1  844.21  676.37  115.21  o
  11  3  15  2  60.93  112.98  86.60  <
  11  3  -15  2  57.02  26.36  79.09  <
  12  3  15  -2  89.56  84.74  77.20  <
  12  3  -15  -2  91.02  64.02  75.33  <
  12  3  15  -1  210.57  111.11  82.91  <
  12  3  -15  -1  200.92  43.31  94.20  <
  12  3  15  0  50.87  -7.53  79.09  <
  12  3  -15  0  87.86  -52.72  88.50  <
  12  3  15  1  134.09  80.97  94.17  <
  12  3  -15  1  134.40  7.53  84.76  <
  13  3  15  -2  41.90  -1.88  73.44  <
  13  3  -15  -2  38.05  11.30  77.20  <
  13  3  15  -1  682.70  715.85  137.47  o
  13  3  -15  -1  650.52  736.55  144.94  o
  1  4  15  -2  23.29  26.36  48.96  <
  1  4  -15  -2  23.39  -28.24  37.65  <
  1  4  15  -1  794.67  785.70  98.00  o
  1  4  -15  -1  772.68  734.81  82.99  o
  1  4  15  0  5179.97  5190.49  228.73  o
  1  4  -15  0  5393.29  5274.60  180.60  o
  1  4  15  1  5.49  -52.72  58.36  <
  1  4  -15  1  9.33  1.88  45.19  <
  1  4  15  2  342.20  340.89  94.17  o
  1  4  -15  2  338.12  242.96  69.78  o
  2  4  15  -2  23.09  11.30  52.72  <
  2  4  -15  -2  19.77  58.37  45.18  <
  2  4  15  -1  1588.55  1436.70  121.17  o
  2  4  -15  -1  1566.84  1549.80  100.00  o
  2  4  15  0  6164.73  6165.29  230.86  o
  2  4  -15  0  6039.81  5886.52  213.06  o
  2  4  15  1  505.00  582.04  105.38  o
  2  4  -15  1  509.65  493.51  86.67  o
  2  4  15  2  148.51  41.43  64.06  <
  2  4  -15  2  136.88  43.31  56.53  <
  3  4  15  -2  21.19  13.18  47.07  <
  3  4  -15  -2  26.93  37.66  41.42  <
  3  4  15  -1  1032.89  1125.06  116.61  o
  3  4  -15  -1  1046.15  934.73  103.93  o
  3  4  15  0  6377.17  6033.57  233.32  o
  3  4  -15  0  5976.82  6559.50  218.78  o
  3  4  15  1  71.12  20.71  60.26  <
  3  4  -15  1  62.20  47.07  58.38  <
  3  4  15  2  312.38  184.57  75.44  <
  3  4  -15  2  324.85  84.75  66.08  <
  4  4  15  -2  5.83  26.36  47.07  <
  4  4  -15  -2  6.89  -28.24  45.19  <
  4  4  15  -1  160.41  126.17  54.63  <
  4  4  -15  -1  153.07  195.85  67.76  <
  4  4  15  0  1848.93  1834.75  128.28  o
  4  4  -15  0  1843.97  2259.02  143.57  o
  4  4  15  1  72.12  1.88  54.62  <
  4  4  -15  1  73.84  7.53  56.50  <
  4  4  15  2  3.26  -9.41  62.14  <
  4  4  -15  2  2.65  1.88  60.25  <
  5  4  15  -2  35.53  5.65  48.96  <
  5  4  -15  -2  33.31  -9.41  50.84  <
  5  4  15  -1  1050.73  1013.86  99.98  o
  5  4  -15  -1  1055.55  1004.44  115.08  o
  5  4  15  0  6334.73  6342.87  217.55  o
  5  4  -15  0  6352.42  6605.98  246.10  o
  5  4  15  1  83.82  37.66  56.50  <
  5  4  -15  1  98.27  -16.95  60.27  <
  5  4  15  2  254.38  192.09  81.02  <
  5  4  -15  2  261.38  173.26  77.27  <
  6  4  15  -2  24.95  35.78  47.07  <
  6  4  -15  -2  24.79  28.24  52.72  <
  6  4  15  -1  940.86  1060.86  107.10  o
  6  4  -15  -1  949.07  1096.67  122.14  o
  6  4  15  0  2860.02  2958.90  152.35  o
  6  4  -15  0  2840.02  2800.34  166.24  o
  6  4  15  1  435.08  410.60  90.44  o
  6  4  -15  1  447.40  427.56  96.08  o
  6  4  15  2  82.37  35.78  71.56  <
  6  4  -15  2  87.40  15.06  77.21  <
  7  4  15  -2  36.69  43.31  54.60  <
  7  4  -15  -2  35.32  16.95  54.61  <
  7  4  15  -1  305.12  359.72  84.69  o
  7  4  -15  -1  304.59  291.92  73.46  o
  7  4  15  0  3653.59  3959.37  202.37  o
  7  4  -15  0  4018.21  3592.18  196.70  o
  7  4  15  1  65.07  80.97  77.20  <
  7  4  -15  1  48.22  69.67  71.55  <
  7  4  15  2  285.01  361.59  97.86  o
  7  4  -15  2  287.73  284.38  90.40  o
  8  4  15  -2  22.30  -5.65  54.61  <
  8  4  -15  -2  20.55  32.01  54.60  <
  8  4  15  -1  37.84  24.48  64.02  <
  8  4  -15  -1  54.87  5.65  58.38  <
  8  4  15  0  71.38  3.77  62.15  <
  8  4  -15  0  54.48  11.30  65.91  <
  8  4  15  1  99.31  -20.71  65.92  <
  8  4  -15  1  100.72  69.67  73.45  <
  8  4  15  2  48.32  28.24  75.32  <
  8  4  -15  2  49.09  97.91  75.30  <
  9  4  15  -2  73.79  35.78  62.15  <
  9  4  -15  -2  65.00  37.66  67.79  <
  9  4  15  -1  972.16  734.86  113.51  o
  9  4  -15  -1  932.41  810.21  118.94  o
  9  4  15  0  3975.29  3665.31  239.24  o
  9  4  -15  0  3763.96  3857.33  209.12  o
  9  4  15  1  99.13  -24.48  75.33  <
  9  4  -15  1  131.58  32.01  71.58  <
  10  4  15  -2  37.76  39.54  69.67  <
  10  4  -15  -2  39.76  1.88  64.02  <
  10  4  15  -1  745.40  697.05  116.88  o
  10  4  -15  -1  727.42  924.99  123.97  o
  10  4  15  0  4749.82  4900.88  242.92  o
  10  4  -15  0  4659.60  5357.75  289.55  o
  11  4  15  -2  76.40  48.96  77.21  <
  11  4  -15  -2  85.31  84.74  77.20  <
  11  4  15  -1  424.36  433.20  103.58  o
  11  4  -15  -1  424.23  425.66  107.36  o
  12  4  15  -2  27.57  -15.06  84.73  <
  12  4  -15  -2  31.85  -11.30  90.38  <
  1  5  15  -2  139.02  56.49  64.05  <
  1  5  -15  -2  141.07  97.92  50.87  <
  1  5  15  -1  1171.86  1143.95  133.87  o
  1  5  -15  -1  1058.48  1087.31  116.76  o
  1  5  15  0  830.84  634.93  115.25  o
  1  5  -15  0  839.22  800.73  109.35  o
  1  5  15  1  2174.30  2087.64  171.90  o
  1  5  -15  1  2174.15  2255.48  152.44  o
  2  5  15  -2  149.81  16.95  64.06  <
  2  5  -15  -2  138.93  -64.03  52.73  <
  2  5  15  -1  273.64  337.11  90.34  o
  2  5  -15  -1  301.73  222.23  67.88  o
  2  5  15  0  140.89  80.97  73.46  <
  2  5  -15  0  166.93  65.91  67.83  <
  2  5  15  1  557.83  470.91  107.48  o
  2  5  -15  1  560.91  638.56  109.14  o
  3  5  15  -2  255.66  124.30  66.00  <
  3  5  -15  -2  248.11  209.04  67.83  o
  3  5  15  -1  1062.14  889.44  115.33  o
  3  5  -15  -1  1080.88  932.80  111.53  o
  3  5  15  0  222.56  163.84  77.25  <
  3  5  -15  0  198.15  239.16  79.06  o
  3  5  15  1  1832.83  1823.15  171.60  o
  3  5  -15  1  1871.73  1708.19  158.86  o
  4  5  15  -2  4.16  7.53  50.84  <
  4  5  -15  -2  4.74  5.65  52.72  <
  4  5  15  -1  109.49  64.02  62.16  <
  4  5  -15  -1  107.76  15.06  58.39  <
  4  5  15  0  471.96  536.81  111.05  o
  4  5  -15  0  487.65  544.35  97.86  o
  4  5  15  1  13.19  15.06  77.20  <
  4  5  -15  1  14.27  -45.19  65.90  <
  5  5  15  -2  168.10  32.01  52.78  <
  5  5  -15  -2  166.65  69.68  62.19  <
  5  5  15  -1  1371.87  1483.35  144.83  o
  5  5  -15  -1  1455.89  1536.22  150.58  o
  5  5  15  0  450.49  491.59  101.66  o
  5  5  -15  0  462.71  286.30  88.71  o
  6  5  15  -2  61.61  -30.13  58.37  <
  6  5  -15  -2  57.01  16.95  58.38  <
  6  5  15  -1  266.66  133.71  77.30  <
  6  5  -15  -1  270.38  152.54  101.75  <
  6  5  15  0  300.59  312.63  94.15  o
  6  5  -15  0  296.02  468.94  120.37  o
  7  5  15  -2  94.69  82.85  69.68  <
  7  5  -15  -2  109.15  37.66  65.92  <
  7  5  15  -1  1211.93  1170.31  145.20  o
  7  5  -15  -1  1287.12  1100.64  138.00  o
  7  5  15  0  670.20  574.55  116.93  o
  7  5  -15  0  728.32  459.66  105.87  o
  8  5  15  -2  49.81  3.77  62.14  <
  8  5  -15  -2  49.79  -105.45  58.33  <
  8  5  15  -1  24.27  -5.65  69.67  <
  8  5  -15  -1  34.68  3.77  69.67  <
  9  5  15  -2  105.31  48.96  79.10  <
  9  5  -15  -2  102.12  97.92  75.32  <
  10  5  15  -2  67.47  -37.66  77.20  <
  10  5  -15  -2  61.27  -47.07  73.43  <
  1  6  15  -2  1.21  94.14  75.29  <
  1  6  -15  -2  1.34  -15.06  62.13  <
  1  6  15  -1  383.45  376.68  107.36  o
  1  6  -15  -1  408.87  259.91  86.78  o
  2  6  15  -2  54.62  -18.83  69.67  <
  2  6  -15  -2  52.15  43.31  62.14  <
  2  6  15  -1  354.31  303.22  101.74  <
  2  6  -15  -1  348.52  354.07  92.28  o
  3  6  15  -2  53.71  39.54  79.09  <
  3  6  -15  -2  55.58  7.53  64.03  <
  4  6  15  -2  7.91  -7.53  73.43  <
  4  6  -15  -2  6.59  0.00  65.90  <
  5  6  15  -2  3.13  -30.13  69.66  <
  5  6  -15  -2  2.00  -18.83  82.85  <
  6  6  15  -2  18.44  52.72  112.97  <
  6  6  -15  -2  16.62  -39.54  94.14  <
  0  0  16  0  123.45  -26.36  80.99  <
  0  0  -16  0  151.37  207.15  126.15  <
  0  0  16  1  9.31  116.74  65.87  <
  0  0  -16  1  13.92  -26.36  62.13  <
  0  0  16  2  82.56  67.79  62.15  <
  0  0  -16  2  86.46  47.08  58.39  <
  1  0  16  1  745.77  951.61  84.22  o
  1  0  -16  1  731.55  832.88  93.99  o
  1  0  16  2  44.30  18.83  39.55  <
  1  0  -16  2  43.21  30.13  41.43  <
  2  0  16  0  256.40  160.09  64.11  <
  2  0  -16  0  311.94  314.55  96.06  o
  2  0  16  1  7.12  -7.53  35.77  <
  2  0  -16  1  4.01  -56.49  35.76  <
  2  0  16  2  2.16  7.53  41.42  <
  2  0  -16  2  2.42  -22.59  35.77  <
  3  0  16  1  689.95  650.06  77.34  o
  3  0  -16  1  699.35  638.76  81.15  o
  3  0  16  2  24.58  -13.18  39.54  <
  3  0  -16  2  23.27  -41.42  41.42  <
  4  0  16  0  18929.80  18532.40  531.37  o
  4  0  -16  0  18983.80  18942.00  518.47  o
  4  0  16  1  129.49  107.34  48.98  <
  4  0  -16  1  130.58  65.91  45.23  <
  4  0  16  2  93.98  122.40  52.71  <
  4  0  -16  2  95.93  71.56  50.85  <
  5  0  16  1  607.77  469.12  77.49  o
  5  0  -16  1  609.32  687.66  82.73  o
  5  0  16  2  71.75  88.50  48.95  <
  5  0  -16  2  70.91  -18.83  37.67  <
  6  0  16  0  3462.08  2841.11  189.69  o
  6  0  -16  0  3455.32  3303.90  195.26  o
  6  0  16  1  389.71  325.86  62.25  o
  6  0  -16  1  386.14  271.23  56.67  o
  6  0  16  2  35.15  20.71  47.08  <
  6  0  -16  2  32.77  18.83  37.66  <
  7  0  16  1  708.87  627.41  81.19  o
  7  0  -16  1  736.89  621.77  83.15  o
  7  0  16  2  30.74  24.48  50.84  <
  7  0  -16  2  30.90  -7.53  43.31  <
  8  0  16  0  1525.06  1521.52  160.27  o
  8  0  -16  0  1737.06  1557.63  181.46  o
  8  0  16  1  538.91  487.90  77.32  o
  8  0  -16  1  538.93  493.55  84.84  o
  8  0  16  2  28.00  30.13  50.84  <
  8  0  -16  2  27.57  62.14  52.71  <
  9  0  16  1  747.39  610.44  86.94  o
  9  0  -16  1  762.41  770.59  101.72  o
  9  0  16  2  70.86  -50.84  47.07  <
  9  0  -16  2  70.86  79.09  60.25  <
  10  0  16  0  12814.80  12497.20  491.11  o
  10  0  -16  0  12766.80  11271.60  483.50  o
  10  0  16  1  21.39  -47.07  50.83  <
  10  0  -16  1  42.74  16.95  60.26  <
  10  0  16  2  33.00  15.06  52.72  <
  10  0  -16  2  31.11  -33.89  54.60  <
  11  0  16  1  601.03  649.90  103.53  o
  11  0  -16  1  560.97  625.39  101.62  o
  11  0  16  2  64.64  -69.67  60.24  <
  11  0  -16  2  60.70  -18.83  58.38  <
  12  0  16  0  3704.93  4078.45  279.93  o
  12  0  -16  0  3728.62  4029.43  282.12  o
  12  0  16  1  58.40  64.02  64.02  <
  12  0  -16  1  57.07  69.67  71.55  <
  12  0  16  2  26.67  -47.07  71.54  <
  12  0  -16  2  29.69  -58.37  71.54  <
  13  0  16  1  475.95  444.52  92.34  o
  13  0  -16  1  473.03  495.37  118.64  o
  13  0  16  2  82.52  52.72  80.98  <
  13  0  -16  2  84.19  56.49  80.98  <
  14  0  16  0  10368.60  9774.61  466.24  o
  14  0  -16  0  10416.20  8706.96  672.15  o
  14  0  16  1  1145.97  1155.16  135.66  o
  14  0  -16  1  1130.81  981.78  194.31  o
  14  0  16  2  16.78  -24.48  79.08  <
  14  0  -16  2  17.40  -5.65  105.44  <
  0  1  16  -2  20.22  -7.53  48.96  <
  0  1  -16  -2  17.91  -28.24  54.60  <
  0  1  16  -1  1094.31  1189.47  126.07  o
  0  1  -16  -1  1057.66  1093.29  150.73  o
  0  1  16  0  30768.70  31645.70  742.08  o
  0  1  -16  0  30769.70  30147.80  729.69  o
  0  1  16  1  6636.76  6676.14  263.22  o
  0  1  -16  1  6509.77  6572.94  244.04  o
  0  1  16  2  24.47  -3.77  62.14  <
  0  1  -16  2  24.43  -15.06  60.25  <
  1  1  16  -2  20.53  48.96  41.42  <
  1  1  -16  -2  21.94  35.78  48.95  <
  1  1  16  -1  281.07  322.07  56.44  o
  1  1  -16  -1  299.53  237.32  60.34  o
  1  1  16  0  304.44  329.61  58.35  o
  1  1  -16  0  351.74  301.37  56.58  o
  1  1  16  1  257.90  224.12  52.77  o
  1  1  -16  1  274.24  233.54  52.79  o
  1  1  16  2  15.34  -9.41  41.42  <
  1  1  -16  2  13.71  -20.71  39.54  <
  2  1  16  -2  18.65  28.24  39.54  <
  2  1  -16  -2  19.04  -16.95  41.42  <
  2  1  16  -1  35.34  9.41  41.43  <
  2  1  -16  -1  39.13  56.49  45.19  <
  2  1  16  0  312.00  152.56  52.90  <
  2  1  -16  0  296.87  378.58  67.69  o
  2  1  16  1  39.53  13.18  39.55  <
  2  1  -16  1  45.47  -13.18  37.66  <
  2  1  16  2  17.47  56.49  48.95  <
  2  1  -16  2  18.48  -13.18  35.77  <
  3  1  16  -2  14.01  43.31  43.30  <
  3  1  -16  -2  13.29  15.06  41.42  <
  3  1  16  -1  251.29  184.57  54.69  o
  3  1  -16  -1  228.22  348.42  67.65  o
  3  1  16  0  1340.77  1351.85  98.00  o
  3  1  -16  0  1272.70  1395.12  110.83  o
  3  1  16  1  214.19  105.46  45.29  <
  3  1  -16  1  180.61  146.89  48.99  o
  3  1  16  2  11.13  -15.06  37.66  <
  3  1  -16  2  9.90  -3.77  39.54  <
  4  1  16  -2  89.06  71.56  47.08  <
  4  1  -16  -2  93.16  75.32  41.44  <
  4  1  16  -1  914.54  842.42  86.88  o
  4  1  -16  -1  908.93  974.33  97.83  o
  4  1  16  0  11660.80  12017.00  277.82  o
  4  1  -16  0  11685.40  11221.20  294.30  o
  4  1  16  1  2985.15  3332.84  137.58  o
  4  1  -16  1  3027.63  2943.97  136.45  o
  4  1  16  2  83.33  116.75  48.94  <
  4  1  -16  2  88.98  75.32  50.85  <
  5  1  16  -2  29.64  13.18  39.54  <
  5  1  -16  -2  26.19  13.18  39.54  <
  5  1  16  -1  87.01  158.18  58.33  <
  5  1  -16  -1  83.26  39.54  47.09  <
  5  1  16  0  682.15  700.89  82.86  o
  5  1  -16  0  675.28  751.76  84.61  o
  5  1  16  1  175.83  154.42  56.51  <
  5  1  -16  1  161.86  184.55  56.48  o
  5  1  16  2  32.40  15.06  47.08  <
  5  1  -16  2  29.85  9.41  43.31  <
  6  1  16  -2  4.52  -22.59  37.66  <
  6  1  -16  -2  6.62  52.72  45.18  <
  6  1  16  -1  55.71  96.03  48.94  <
  6  1  -16  -1  62.99  56.49  41.43  <
  6  1  16  0  4.99  0.00  47.07  <
  6  1  -16  0  1.96  -26.36  41.42  <
  6  1  16  1  178.34  105.46  56.54  <
  6  1  -16  1  176.36  167.60  54.62  o
  6  1  16  2  8.95  -65.90  45.17  <
  6  1  -16  2  10.04  -3.77  43.31  <
  7  1  16  -2  12.16  48.96  45.18  <
  7  1  -16  -2  13.77  5.65  43.31  <
  7  1  16  -1  144.88  111.11  56.51  <
  7  1  -16  -1  155.49  133.70  60.27  <
  7  1  16  0  543.77  640.49  94.02  o
  7  1  -16  0  550.08  442.70  73.65  o
  7  1  16  1  118.31  152.53  64.00  <
  7  1  -16  1  127.96  88.51  58.39  <
  7  1  16  2  14.75  -1.88  47.07  <
  7  1  -16  2  15.86  9.41  48.96  <
  8  1  16  -2  4.74  -3.77  47.07  <
  8  1  -16  -2  2.51  39.54  50.83  <
  8  1  16  -1  1002.77  878.19  109.58  o
  8  1  -16  -1  988.38  791.49  92.83  o
  8  1  16  0  19920.00  19467.60  466.65  o
  8  1  -16  0  19795.80  19505.80  402.10  o
  8  1  16  1  4455.75  4779.84  192.59  o
  8  1  -16  1  4434.55  4460.35  173.70  o
  8  1  16  2  0.76  5.65  56.49  <
  8  1  -16  2  2.21  -26.36  48.95  <
  9  1  16  -2  11.03  5.65  48.96  <
  9  1  -16  -2  12.91  -67.78  47.05  <
  9  1  16  -1  102.01  173.24  65.86  <
  9  1  -16  -1  99.11  58.37  60.27  <
  9  1  16  0  707.56  670.70  96.15  o
  9  1  -16  0  676.90  489.83  77.60  o
  9  1  16  1  82.47  15.06  56.50  <
  9  1  -16  1  96.13  37.66  48.98  <
  9  1  16  2  21.35  41.42  60.25  <
  9  1  -16  2  14.78  9.41  52.72  <
  10  1  16  -2  99.12  3.77  52.74  <
  10  1  -16  -2  98.84  35.78  60.27  <
  10  1  16  -1  954.37  1096.69  120.27  o
  10  1  -16  -1  940.48  819.68  109.54  o
  10  1  16  0  1097.72  1017.65  122.68  o
  10  1  -16  0  1096.38  1028.96  111.36  o
  10  1  16  1  223.61  220.34  73.45  <
  10  1  -16  1  222.12  75.33  58.46  <
  10  1  16  2  108.56  26.36  65.92  <
  10  1  -16  2  109.12  -3.77  60.27  <
  11  1  16  -2  4.91  3.77  52.72  <
  11  1  -16  -2  6.65  -7.53  62.14  <
  11  1  16  -1  179.51  133.70  67.82  <
  11  1  -16  -1  188.66  62.14  65.96  <
  11  1  16  0  479.14  397.44  107.45  o
  11  1  -16  0  504.22  403.10  90.54  o
  11  1  16  1  70.13  128.04  71.53  <
  11  1  -16  1  55.99  203.36  75.24  <
  11  1  16  2  4.97  47.07  65.90  <
  11  1  -16  2  5.94  92.26  88.48  <
  12  1  16  -2  36.16  33.89  60.25  <
  12  1  -16  -2  37.52  48.96  65.90  <
  12  1  16  -1  195.80  188.32  73.45  <
  12  1  -16  -1  177.78  145.00  86.64  <
  12  1  16  0  7962.54  7389.03  398.79  o
  12  1  -16  0  8033.68  8656.67  340.66  o
  12  1  16  1  1742.39  1892.87  169.24  o
  12  1  -16  1  1685.06  1787.22  150.50  o
  12  1  16  2  37.19  37.66  71.55  <
  12  1  -16  2  37.24  5.65  67.79  <
  13  1  16  -2  63.02  47.07  69.67  <
  13  1  -16  -2  61.66  -39.54  86.61  <
  13  1  16  -1  32.33  -7.53  64.02  <
  13  1  -16  -1  35.23  -28.24  77.20  <
  13  1  16  0  84.22  128.04  86.60  <
  13  1  -16  0  100.54  28.25  79.10  <
  13  1  16  1  88.20  131.81  94.14  <
  13  1  -16  1  94.39  214.66  94.09  <
  13  1  16  2  66.79  5.65  96.04  <
  13  1  -16  2  64.71  -43.31  71.55  <
  14  1  16  -2  66.16  148.76  79.05  <
  14  1  -16  -2  77.54  3.77  101.69  <
  14  1  16  -1  136.79  99.80  75.34  <
  14  1  -16  -1  148.37  261.75  133.65  <
  14  1  16  0  264.36  190.21  105.50  <
  14  1  -16  0  248.98  197.74  122.43  <
  0  2  16  -2  228.07  299.45  79.03  o
  0  2  -16  -2  234.82  195.87  67.83  <
  0  2  16  -1  848.93  908.32  133.69  o
  0  2  -16  -1  878.88  746.28  111.44  o
  0  2  16  0  6926.72  5804.02  288.90  o
  0  2  -16  0  6690.86  6361.75  276.84  o
  0  2  16  1  251.80  141.25  81.05  <
  0  2  -16  1  248.06  1.88  58.48  <
  0  2  16  2  15.46  56.49  67.78  <
  0  2  -16  2  16.28  -56.49  48.94  <
  1  2  16  -2  9.34  22.59  45.19  <
  1  2  -16  -2  8.43  24.48  33.89  <
  1  2  16  -1  1461.40  1423.65  103.85  o
  1  2  -16  -1  1430.15  1393.43  100.07  o
  1  2  16  0  3081.38  2913.93  142.57  o
  1  2  -16  0  3085.32  2774.19  128.40  o
  1  2  16  1  28.64  92.26  54.58  <
  1  2  -16  1  31.69  47.07  45.19  <
  1  2  16  2  124.58  131.82  56.49  <
  1  2  -16  2  130.03  156.30  52.71  <
  2  2  16  -2  4.27  -1.88  39.54  <
  2  2  -16  -2  4.73  -33.89  35.77  <
  2  2  16  -1  5.50  28.24  43.30  <
  2  2  -16  -1  4.21  -5.65  37.66  <
  2  2  16  0  1486.89  1451.88  107.60  o
  2  2  -16  0  1529.85  1416.11  102.26  o
  2  2  16  1  8.55  -16.95  39.54  <
  2  2  -16  1  8.60  43.31  45.18  <
  2  2  16  2  0.95  56.49  50.83  <
  2  2  -16  2  1.31  -3.77  39.54  <
  3  2  16  -2  34.03  -20.71  39.54  <
  3  2  -16  -2  35.50  -1.88  45.19  <
  3  2  16  -1  1029.56  1068.66  90.35  o
  3  2  -16  -1  1034.48  1145.94  88.21  o
  3  2  16  0  4311.35  4227.22  163.17  o
  3  2  -16  0  4127.27  4079.06  151.56  o
  3  2  16  1  146.42  50.84  52.77  <
  3  2  -16  1  153.46  158.18  52.72  <
  3  2  16  2  86.10  148.76  58.34  <
  3  2  -16  2  84.78  41.43  47.09  <
  4  2  16  -2  145.30  67.79  45.24  <
  4  2  -16  -2  142.62  69.68  47.12  <
  4  2  16  -1  1859.63  2133.30  111.85  o
  4  2  -16  -1  1871.28  1861.71  113.22  o
  4  2  16  0  14017.20  14576.90  311.69  o
  4  2  -16  0  14236.30  13612.70  359.36  o
  4  2  16  1  176.84  107.34  50.89  <
  4  2  -16  1  187.00  222.22  54.58  o
  4  2  16  2  56.29  90.38  48.94  <
  4  2  -16  2  62.44  48.96  48.96  <
  5  2  16  -2  16.15  43.31  39.53  <
  5  2  -16  -2  13.50  24.48  47.07  <
  5  2  16  -1  962.68  1085.51  107.10  o
  5  2  -16  -1  971.01  1077.98  101.47  o
  5  2  16  0  2678.85  2665.05  128.42  o
  5  2  -16  0  2771.46  2533.14  142.74  o
  5  2  16  1  122.22  67.79  47.10  <
  5  2  -16  1  120.22  62.14  52.75  <
  5  2  16  2  132.57  101.69  50.86  <
  5  2  -16  2  128.78  94.15  56.51  <
  6  2  16  -2  19.25  -58.37  45.18  <
  6  2  -16  -2  16.73  1.88  43.31  <
  6  2  16  -1  12.23  1.88  48.96  <
  6  2  -16  -1  17.09  -15.06  47.07  <
  6  2  16  0  251.92  399.26  75.15  o
  6  2  -16  0  258.43  258.01  65.92  o
  6  2  16  1  281.57  301.33  64.01  o
  6  2  -16  1  282.32  282.50  65.92  o
  6  2  16  2  13.83  9.41  50.84  <
  6  2  -16  2  12.93  26.36  52.72  <
  7  2  16  -2  37.29  -13.18  48.96  <
  7  2  -16  -2  35.08  -35.78  45.19  <
  7  2  16  -1  1627.54  1768.65  131.50  o
  7  2  -16  -1  1697.19  1455.73  115.88  o
  7  2  16  0  2390.05  2860.26  162.07  o
  7  2  -16  0  2501.44  2413.34  138.16  o
  7  2  16  1  29.47  79.08  62.12  <
  7  2  -16  1  30.16  33.89  50.84  <
  7  2  16  2  60.71  56.49  52.72  <
  7  2  -16  2  65.03  3.77  50.85  <
  8  2  16  -2  121.45  97.92  56.50  <
  8  2  -16  -2  122.86  195.84  63.97  o
  8  2  16  -1  37.49  1.88  54.61  <
  8  2  -16  -1  29.28  111.09  60.22  <
  8  2  16  0  9.13  -30.13  56.48  <
  8  2  -16  0  63.20  67.79  58.37  <
  8  2  16  1  942.65  806.49  113.33  o
  8  2  -16  1  954.34  944.05  105.55  o
  8  2  16  2  53.45  69.67  62.13  <
  8  2  -16  2  52.11  47.07  60.26  <
  9  2  16  -2  55.32  161.94  65.85  <
  9  2  -16  -2  60.79  56.49  58.37  <
  9  2  16  -1  710.39  723.45  103.59  o
  9  2  -16  -1  727.93  561.43  92.61  o
  9  2  16  0  1766.96  1845.95  144.92  o
  9  2  -16  0  1780.15  1896.88  129.66  o
  9  2  16  1  176.24  75.33  69.72  <
  9  2  -16  1  149.65  180.78  73.42  <
  9  2  16  2  118.75  90.39  69.68  <
  9  2  -16  2  119.68  135.58  69.67  <
  10  2  16  -2  37.15  -26.36  50.84  <
  10  2  -16  -2  34.61  43.31  54.60  <
  10  2  16  -1  42.01  88.50  64.01  <
  10  2  -16  -1  51.74  -11.30  64.02  <
  10  2  16  0  10721.70  9955.83  329.15  o
  10  2  -16  0  10693.60  9929.04  327.25  o
  10  2  16  1  172.35  77.21  67.83  <
  10  2  -16  1  203.28  175.14  77.23  <
  10  2  16  2  23.51  -52.72  71.54  <
  10  2  -16  2  24.93  -13.18  58.37  <
  11  2  16  -2  128.62  -64.02  58.38  <
  11  2  -16  -2  132.68  28.25  62.17  <
  11  2  16  -1  1257.53  1027.16  124.93  o
  11  2  -16  -1  1195.88  1106.26  132.13  o
  11  2  16  0  1741.03  1906.09  155.96  o
  11  2  -16  0  1653.59  1760.81  184.49  o
  11  2  16  1  130.55  150.65  88.50  <
  11  2  -16  1  118.98  -20.71  79.10  <
  11  2  16  2  55.40  18.83  80.97  <
  11  2  -16  2  55.02  43.31  84.74  <
  12  2  16  -2  29.41  20.71  69.67  <
  12  2  -16  -2  28.52  75.32  80.96  <
  12  2  16  -1  825.53  674.49  128.34  o
  12  2  -16  -1  842.07  744.21  118.87  o
  12  2  16  0  1051.34  993.05  148.97  o
  12  2  -16  0  1045.64  1164.52  173.15  o
  12  2  16  1  129.87  143.11  90.38  <
  12  2  -16  1  126.48  -16.95  88.52  <
  12  2  16  2  59.78  146.87  94.12  <
  12  2  -16  2  58.82  37.66  92.27  <
  13  2  16  -2  50.50  92.26  88.49  <
  13  2  -16  -2  40.71  37.66  80.97  <
  13  2  16  -1  698.42  860.91  175.00  o
  13  2  -16  -1  679.10  804.39  126.01  o
  13  2  16  0  1313.05  1632.12  240.70  o
  13  2  -16  0  1322.24  1498.31  173.00  o
  14  2  16  -2  10.78  -28.24  105.44  <
  14  2  -16  -2  12.24  -54.60  90.37  <
  0  3  16  -2  47.13  -52.72  62.13  <
  0  3  -16  -2  41.95  -28.24  50.84  <
  0  3  16  -1  385.49  421.92  101.67  o
  0  3  -16  -1  392.09  499.14  103.47  o
  0  3  16  0  8773.18  8523.15  350.76  o
  0  3  -16  0  8932.71  9029.12  339.00  o
  0  3  16  1  2432.53  2741.46  227.34  o
  0  3  -16  1  2311.88  2158.23  160.92  o
  0  3  16  2  54.01  30.13  96.03  <
  0  3  -16  2  54.86  -11.30  60.26  <
  1  3  16  -2  118.03  112.99  56.50  <
  1  3  -16  -2  120.85  146.88  54.59  <
  1  3  16  -1  867.56  876.23  90.43  o
  1  3  -16  -1  875.09  1026.99  97.58  o
  1  3  16  0  3492.09  3460.02  168.27  o
  1  3  -16  0  3597.33  3541.55  145.80  o
  1  3  16  1  457.47  546.25  90.28  o
  1  3  -16  1  456.97  501.04  73.38  o
  1  3  16  2  55.11  64.02  65.90  <
  1  3  -16  2  54.34  105.45  50.82  <
  2  3  16  -2  7.11  -3.77  41.42  <
  2  3  -16  -2  6.65  -58.37  33.87  <
  2  3  16  -1  68.49  7.53  45.20  <
  2  3  -16  -1  67.47  33.89  45.20  <
  2  3  16  0  66.57  -30.13  47.08  <
  2  3  -16  0  68.05  -11.30  41.43  <
  2  3  16  1  27.56  5.65  50.84  <
  2  3  -16  1  30.92  -30.13  41.42  <
  2  3  16  2  12.61  54.60  58.36  <
  2  3  -16  2  13.57  -48.96  41.41  <
  3  3  16  -2  162.78  139.35  58.39  <
  3  3  -16  -2  161.30  216.56  54.56  o
  3  3  16  -1  922.51  938.45  101.72  o
  3  3  -16  -1  896.18  1011.92  92.01  o
  3  3  16  0  1543.05  1229.27  115.97  o
  3  3  -16  0  1346.72  1423.23  107.18  o
  3  3  16  1  691.42  749.82  95.96  o
  3  3  -16  1  666.61  648.07  88.58  o
  3  3  16  2  19.35  43.31  56.48  <
  3  3  -16  2  13.72  5.65  52.72  <
  4  3  16  -2  98.78  65.91  47.09  <
  4  3  -16  -2  100.71  22.60  43.33  <
  4  3  16  -1  311.67  337.13  69.65  o
  4  3  -16  -1  308.59  339.01  69.65  o
  4  3  16  0  3184.36  3213.32  147.09  o
  4  3  -16  0  3133.93  3500.15  171.78  o
  4  3  16  1  3111.13  3394.05  147.45  o
  4  3  -16  1  3167.11  2795.79  158.52  o
  4  3  16  2  70.80  13.18  50.85  <
  4  3  -16  2  77.43  80.97  62.14  <
  5  3  16  -2  109.52  11.30  43.34  <
  5  3  -16  -2  107.98  145.00  58.35  <
  5  3  16  -1  654.12  838.36  90.01  o
  5  3  -16  -1  673.88  563.31  90.63  o
  5  3  16  0  294.40  184.57  58.49  o
  5  3  -16  0  264.02  192.10  67.86  <
  5  3  16  1  695.24  627.35  86.80  o
  5  3  -16  1  669.25  755.45  105.34  o
  5  3  16  2  53.97  54.61  56.49  <
  5  3  -16  2  47.39  9.41  58.38  <
  6  3  16  -2  10.32  47.07  52.71  <
  6  3  -16  -2  11.29  5.65  45.19  <
  6  3  16  -1  71.09  1.88  50.85  <
  6  3  -16  -1  70.80  92.27  56.48  <
  6  3  16  0  383.87  461.45  77.11  o
  6  3  -16  0  364.89  310.77  75.40  o
  6  3  16  1  57.58  50.84  54.61  <
  6  3  -16  1  51.90  -28.24  54.61  <
  6  3  16  2  7.74  -45.19  50.83  <
  6  3  -16  2  8.38  16.95  60.25  <
  7  3  16  -2  75.79  50.84  56.50  <
  7  3  -16  -2  80.45  90.38  56.49  <
  7  3  16  -1  645.61  864.70  105.06  o
  7  3  -16  -1  685.47  542.58  81.29  o
  7  3  16  0  3047.05  3546.52  171.03  o
  7  3  -16  0  3263.16  2984.57  158.14  o
  7  3  16  1  409.47  286.29  81.12  o
  7  3  -16  1  421.69  339.03  79.21  o
  7  3  16  2  25.18  -79.08  52.70  <
  7  3  -16  2  26.40  90.38  60.23  <
  8  3  16  -2  26.49  -16.95  50.84  <
  8  3  -16  -2  27.66  -11.30  48.96  <
  8  3  16  -1  126.77  47.08  65.93  <
  8  3  -16  -1  116.83  80.97  56.51  <
  8  3  16  0  5193.94  5291.45  216.77  o
  8  3  -16  0  5172.63  5240.32  207.50  o
  8  3  16  1  2213.87  2229.31  148.94  o
  8  3  -16  1  2205.07  2151.97  145.44  o
  8  3  16  2  8.54  -24.48  64.02  <
  8  3  -16  2  8.21  116.74  77.17  <
  9  3  16  -2  83.04  18.83  60.27  <
  9  3  -16  -2  79.32  -9.42  54.62  <
  9  3  16  -1  344.19  284.39  81.05  o
  9  3  -16  -1  318.27  286.27  77.25  o
  9  3  16  0  3525.67  3260.44  186.29  o
  9  3  -16  0  3509.44  3707.83  191.56  o
  9  3  16  1  282.78  340.87  92.23  o
  9  3  -16  1  312.80  286.27  82.89  o
  9  3  16  2  27.49  50.84  69.66  <
  9  3  -16  2  32.32  -41.42  64.01  <
  10  3  16  -2  37.26  18.83  64.02  <
  10  3  -16  -2  35.00  16.95  65.90  <
  10  3  16  -1  285.95  397.38  94.05  o
  10  3  -16  -1  281.27  325.81  90.36  o
  10  3  16  0  26.55  -48.96  75.31  <
  10  3  -16  0  33.46  16.95  67.79  <
  10  3  16  1  197.17  229.74  96.02  <
  10  3  -16  1  202.00  244.81  86.60  <
  10  3  16  2  31.74  -50.84  73.43  <
  10  3  -16  2  28.64  28.24  73.43  <
  11  3  16  -2  36.06  131.81  71.52  <
  11  3  -16  -2  32.68  13.18  80.97  <
  11  3  16  -1  163.16  188.31  97.91  <
  11  3  -16  -1  138.10  182.66  92.25  <
  11  3  16  0  1532.93  1394.89  181.25  o
  11  3  -16  0  1328.14  1505.88  155.99  o
  11  3  16  1  469.49  506.67  135.58  o
  11  3  -16  1  458.92  442.62  103.61  o
  12  3  16  -2  65.75  11.30  77.21  <
  12  3  -16  -2  59.31  -11.30  82.85  <
  12  3  16  -1  194.94  186.43  99.81  <
  12  3  -16  -1  204.95  207.15  105.46  <
  12  3  16  0  1993.09  2004.35  192.30  o
  12  3  -16  0  2018.74  1623.50  200.80  o
  13  3  16  -2  70.39  -69.67  82.84  <
  13  3  -16  -2  70.70  18.83  90.39  <
  0  4  16  -2  14.25  15.06  73.43  <
  0  4  -16  -2  13.81  35.78  56.48  <
  0  4  16  -1  777.14  947.70  167.44  o
  0  4  -16  -1  819.12  744.24  122.60  o
  0  4  16  0  6276.96  6149.96  358.23  o
  0  4  -16  0  6007.99  5955.67  282.19  o
  0  4  16  1  13.80  -3.77  96.03  <
  0  4  -16  1  13.78  11.30  71.55  <
  0  4  16  2  60.51  37.66  101.68  <
  0  4  -16  2  59.56  79.08  80.96  <
  1  4  16  -2  35.58  22.60  56.49  <
  1  4  -16  -2  36.44  43.31  45.19  <
  1  4  16  -1  57.52  33.89  62.14  <
  1  4  -16  -1  53.91  60.26  50.84  <
  1  4  16  0  2841.19  2658.98  172.50  o
  1  4  -16  0  2809.01  2796.67  137.82  o
  1  4  16  1  600.51  757.27  116.54  o
  1  4  -16  1  646.34  435.16  79.48  o
  1  4  16  2  147.09  286.23  92.18  o
  1  4  -16  2  152.81  237.27  75.26  o
  2  4  16  -2  7.12  -26.36  45.19  <
  2  4  -16  -2  7.24  7.53  41.42  <
  2  4  16  -1  22.35  62.14  56.48  <
  2  4  -16  -1  26.27  9.41  47.07  <
  2  4  16  0  25.19  -24.48  58.37  <
  2  4  -16  0  35.86  39.54  52.72  <
  2  4  16  1  7.50  28.24  67.78  <
  2  4  -16  1  4.79  -20.71  54.60  <
  2  4  16  2  4.63  -41.42  67.78  <
  2  4  -16  2  4.24  37.66  60.25  <
  3  4  16  -2  31.69  5.65  47.08  <
  3  4  -16  -2  33.61  20.71  47.08  <
  3  4  16  -1  359.44  252.38  69.81  o
  3  4  -16  -1  370.20  350.32  73.48  o
  3  4  16  0  6334.87  6620.95  240.14  o
  3  4  -16  0  6400.93  6422.60  230.71  o
  3  4  16  1  1006.42  962.89  128.22  o
  3  4  -16  1  1067.72  872.48  105.99  o
  3  4  16  2  140.19  214.67  77.16  <
  3  4  -16  2  140.88  103.57  65.93  <
  4  4  16  -2  11.80  -20.71  45.19  <
  4  4  -16  -2  12.06  -30.13  52.72  <
  4  4  16  -1  2402.65  2124.22  127.69  o
  4  4  -16  -1  2399.11  2269.47  145.81  o
  4  4  16  0  292.54  414.33  75.17  o
  4  4  -16  0  406.11  312.66  82.98  o
  4  4  16  1  90.22  105.45  58.37  <
  4  4  -16  1  82.43  67.79  69.68  <
  4  4  16  2  106.25  169.47  79.06  <
  4  4  -16  2  112.21  15.06  64.04  <
  5  4  16  -2  1.37  -47.07  48.95  <
  5  4  -16  -2  0.94  16.95  56.49  <
  5  4  16  -1  64.85  96.03  58.36  <
  5  4  -16  -1  68.09  77.20  62.14  <
  5  4  16  0  3782.63  3744.58  172.06  o
  5  4  -16  0  3663.22  3800.89  191.88  o
  5  4  16  1  782.59  715.91  99.98  o
  5  4  -16  1  741.96  738.50  113.04  o
  5  4  16  2  149.08  82.86  79.11  <
  5  4  -16  2  143.47  133.70  75.33  <
  6  4  16  -2  13.13  30.13  48.95  <
  6  4  -16  -2  12.65  5.65  50.84  <
  6  4  16  -1  76.89  79.09  58.37  <
  6  4  -16  -1  70.12  45.19  62.14  <
  6  4  16  0  531.70  608.42  92.17  o
  6  4  -16  0  539.20  693.18  109.01  o
  6  4  16  1  205.99  195.85  79.10  <
  6  4  -16  1  209.13  107.34  75.38  <
  6  4  16  2  7.44  65.90  69.66  <
  6  4  -16  2  7.62  9.41  84.73  <
  7  4  16  -2  49.62  97.91  62.12  <
  7  4  -16  -2  49.08  -58.37  50.83  <
  7  4  16  -1  659.07  619.78  99.91  o
  7  4  -16  -1  663.02  412.56  81.41  o
  7  4  16  0  2672.88  2860.13  180.34  o
  7  4  -16  0  2613.07  2907.16  168.49  o
  7  4  16  1  615.32  531.21  109.37  o
  7  4  -16  1  576.12  559.45  109.28  o
  7  4  16  2  132.90  128.05  84.74  <
  7  4  -16  2  142.82  128.05  82.86  <
  8  4  16  -2  1.27  3.77  58.37  <
  8  4  -16  -2  3.08  48.96  62.13  <
  8  4  16  -1  247.87  167.61  79.15  <
  8  4  -16  -1  242.81  133.71  75.39  <
  8  4  16  0  1962.80  2068.49  173.14  o
  8  4  -16  0  1831.72  1868.44  162.03  o
  8  4  16  1  283.58  252.36  97.95  <
  8  4  -16  1  275.26  158.19  84.82  <
  9  4  16  -2  35.66  50.84  69.67  <
  9  4  -16  -2  36.52  43.31  65.90  <
  9  4  16  -1  392.06  525.48  103.42  o
  9  4  -16  -1  368.61  339.01  92.32  o
  9  4  16  0  2447.70  2959.46  192.31  o
  9  4  -16  0  2539.87  2748.38  184.05  o
  10  4  16  -2  15.75  16.95  82.85  <
  10  4  -16  -2  15.97  -7.53  64.02  <
  10  4  16  -1  292.15  265.54  97.95  <
  10  4  -16  -1  329.96  252.37  86.70  <
  11  4  16  -2  104.74  -50.84  77.20  <
  11  4  -16  -2  108.67  54.61  73.45  <
  0  5  16  -2  96.27  -75.32  82.84  <
  0  5  -16  -2  81.20  -9.42  62.15  <
  0  5  16  -1  1024.91  1079.73  195.89  o
  0  5  -16  -1  1004.16  1230.46  167.29  o
  0  5  16  0  925.73  810.19  186.67  o
  0  5  -16  0  940.90  857.30  152.75  o
  0  5  16  1  646.42  414.43  152.78  <
  0  5  -16  1  609.56  357.90  141.49  <
  1  5  16  -2  131.36  141.23  71.55  <
  1  5  -16  -2  135.43  92.27  54.63  <
  1  5  16  -1  2356.97  2972.70  180.46  o
  1  5  -16  -1  2449.67  2510.75  148.75  o
  1  5  16  0  872.07  894.94  129.96  o
  1  5  -16  0  904.75  800.76  115.13  o
  1  5  16  1  594.57  689.43  124.19  o
  1  5  -16  1  590.62  610.31  103.57  o
  2  5  16  -2  4.84  45.19  64.01  <
  2  5  -16  -2  4.38  52.72  62.13  <
  2  5  16  -1  43.65  52.72  73.43  <
  2  5  -16  -1  43.98  7.53  58.37  <
  2  5  16  0  114.59  -1.88  77.22  <
  2  5  -16  0  112.58  5.65  60.28  <
  2  5  16  1  29.19  -99.80  79.06  <
  2  5  -16  1  32.33  -45.19  67.78  <
  3  5  16  -2  192.46  192.08  69.68  <
  3  5  -16  -2  181.54  133.70  65.94  <
  3  5  16  -1  1716.54  1785.38  144.95  o
  3  5  -16  -1  1652.65  1747.59  133.52  o
  3  5  16  0  137.62  105.45  77.22  <
  3  5  -16  0  86.09  92.27  71.55  <
  4  5  16  -2  128.50  -43.31  48.97  <
  4  5  -16  -2  129.23  60.26  67.81  <
  4  5  16  -1  688.96  838.31  118.42  o
  4  5  -16  -1  677.27  811.93  116.56  o
  4  5  16  0  14.37  11.30  71.55  <
  4  5  -16  0  20.97  82.85  75.30  <
  5  5  16  -2  134.68  71.56  60.28  <
  5  5  -16  -2  122.99  169.48  69.65  <
  5  5  16  -1  1287.52  1341.88  133.67  o
  5  5  -16  -1  1277.31  1223.14  139.59  o
  5  5  16  0  31.04  54.60  84.73  <
  5  5  -16  0  10.17  -88.50  65.88  <
  6  5  16  -2  12.29  -37.66  54.60  <
  6  5  -16  -2  12.54  -56.49  62.13  <
  6  5  16  -1  6.69  30.13  71.55  <
  6  5  -16  -1  11.89  20.71  71.55  <
  7  5  16  -2  118.21  80.97  80.98  <
  7  5  -16  -2  119.83  126.16  77.20  <
  7  5  16  -1  1402.32  1276.00  152.96  o
  7  5  -16  -1  1375.06  1453.14  158.13  o
  8  5  16  -2  56.14  16.95  77.21  <
  8  5  -16  -2  53.17  -16.95  69.67  <
  9  5  16  -2  113.99  111.10  84.74  <
  9  5  -16  -2  119.25  205.25  90.34  <
  0  6  16  -2  105.10  20.71  109.23  <
  0  6  -16  -2  111.57  15.06  92.28  <
  1  6  16  -2  141.44  54.61  77.23  <
  1  6  -16  -2  142.50  90.39  67.81  <
  2  6  16  -2  7.01  9.41  82.85  <
  2  6  -16  -2  6.45  -64.02  60.24  <
  3  6  16  -2  67.72  99.80  73.43  <
  3  6  -16  -2  67.32  77.20  75.32  <
  4  6  16  -2  178.59  48.96  77.25  <
  4  6  -16  -2  186.88  82.86  77.25  <
  1  0  17  1  112.65  88.51  50.86  <
  1  0  -17  1  95.32  145.00  54.58  <
  1  0  17  2  22.61  -24.48  35.77  <
  1  0  -17  2  23.49  -26.36  43.30  <
  2  0  17  0  27792.80  30238.00  830.21  o
  2  0  -17  0  27831.10  29397.70  823.03  o
  2  0  17  1  806.83  955.38  99.51  o
  2  0  -17  1  830.24  817.84  98.02  o
  2  0  17  2  12.65  41.42  43.30  <
  2  0  -17  2  15.71  -22.59  37.66  <
  3  0  17  1  161.86  210.92  60.22  o
  3  0  -17  1  167.73  180.79  60.25  o
  3  0  17  2  29.20  28.24  41.42  <
  3  0  -17  2  33.24  60.25  50.83  <
  4  0  17  0  10792.00  11045.60  445.34  o
  4  0  -17  0  10755.50  11473.20  436.38  o
  4  0  17  1  282.76  278.74  65.92  o
  4  0  -17  1  279.64  365.38  67.69  o
  4  0  17  2  11.87  -26.36  41.42  <
  4  0  -17  2  9.75  -47.07  41.41  <
  5  0  17  1  226.37  195.86  64.06  o
  5  0  -17  1  247.26  146.90  56.58  <
  5  0  17  2  24.13  45.19  52.72  <
  5  0  -17  2  24.11  22.60  47.07  <
  6  0  17  0  32657.40  29750.30  807.15  o
  6  0  -17  0  32579.40  31637.60  781.56  o
  6  0  17  1  795.09  710.35  92.51  o
  6  0  -17  1  809.62  895.02  97.78  o
  6  0  17  2  32.50  30.13  58.37  <
  6  0  -17  2  31.40  16.95  48.96  <
  7  0  17  1  200.45  86.63  62.21  <
  7  0  -17  1  186.69  112.99  58.43  <
  7  0  17  2  113.16  22.60  50.87  <
  7  0  -17  2  112.45  80.97  58.39  <
  8  0  17  0  712.72  674.48  139.47  o
  8  0  -17  0  666.64  448.38  124.58  o
  8  0  17  1  94.00  96.03  64.02  <
  8  0  -17  1  98.05  137.46  65.89  <
  8  0  17  2  63.76  65.90  58.37  <
  8  0  -17  2  66.08  0.00  56.50  <
  9  0  17  1  653.96  572.70  115.03  o
  9  0  -17  1  591.25  527.46  94.29  o
  9  0  17  2  32.46  50.84  62.13  <
  9  0  -17  2  33.61  154.40  73.38  <
  10  0  17  0  5620.43  5575.26  321.71  o
  10  0  -17  0  5448.14  4755.73  305.58  o
  10  0  17  1  585.98  380.52  98.21  o
  10  0  -17  1  604.23  435.15  92.54  o
  10  0  17  2  6.01  60.25  71.54  <
  10  0  -17  2  6.91  3.77  60.25  <
  11  0  17  1  298.71  267.43  92.31  <
  11  0  -17  1  319.06  290.04  86.66  o
  11  0  17  2  56.43  9.41  71.56  <
  11  0  -17  2  61.11  52.72  67.79  <
  12  0  17  0  7550.73  6746.22  382.64  o
  12  0  -17  0  7542.67  7530.05  399.57  o
  12  0  17  1  29.12  135.57  80.93  <
  12  0  -17  1  30.72  109.21  73.41  <
  12  0  17  2  61.35  1.88  75.32  <
  12  0  -17  2  61.82  54.61  86.62  <
  13  0  17  1  364.24  339.01  107.38  o
  13  0  -17  1  358.83  316.41  113.04  <
  13  0  17  2  66.51  146.87  90.35  <
  13  0  -17  2  61.96  35.78  90.39  <
  1  1  17  -2  56.70  62.14  48.96  <
  1  1  -17  -2  56.63  33.89  50.85  <
  1  1  17  -1  1139.10  1413.75  93.22  o
  1  1  -17  -1  1146.77  1191.33  114.86  o
  1  1  17  0  1817.59  1897.53  109.04  o
  1  1  -17  0  1719.62  1903.00  112.36  o
  1  1  17  1  523.05  538.77  73.44  o
  1  1  -17  1  530.93  557.62  73.42  o
  1  1  17  2  55.64  60.26  50.84  <
  1  1  -17  2  54.99  -37.66  39.54  <
  2  1  17  -2  117.08  35.78  45.22  <
  2  1  -17  -2  111.00  75.32  52.74  <
  2  1  17  -1  60.77  35.78  37.67  <
  2  1  -17  -1  66.72  7.53  45.20  <
  2  1  17  0  11477.70  12312.90  277.97  o
  2  1  -17  0  11471.20  12092.00  296.11  o
  2  1  17  1  2179.97  2247.13  122.31  o
  2  1  -17  1  2191.16  2199.98  124.49  o
  2  1  17  2  57.33  -9.41  41.43  <
  2  1  -17  2  57.54  56.49  47.08  <
  3  1  17  -2  52.30  28.24  45.20  <
  3  1  -17  -2  52.35  32.01  48.96  <
  3  1  17  -1  989.01  968.72  90.52  o
  3  1  -17  -1  951.37  1098.73  103.25  o
  3  1  17  0  907.22  1270.16  106.38  o
  3  1  -17  0  938.12  793.40  92.69  o
  3  1  17  1  320.54  274.98  65.97  o
  3  1  -17  1  284.72  258.02  62.18  o
  3  1  17  2  49.89  84.73  50.83  <
  3  1  -17  2  48.93  -16.95  43.31  <
  4  1  17  -2  8.22  52.72  48.95  <
  4  1  -17  -2  8.20  41.42  47.07  <
  4  1  17  -1  61.68  41.43  47.08  <
  4  1  -17  -1  56.76  37.66  48.96  <
  4  1  17  0  52.09  13.18  45.20  <
  4  1  -17  0  90.59  5.65  47.09  <
  4  1  17  1  28.24  -3.77  45.19  <
  4  1  -17  1  24.24  33.89  48.95  <
  4  1  17  2  22.62  24.48  50.84  <
  4  1  -17  2  22.04  -45.19  43.30  <
  5  1  17  -2  29.14  1.88  45.19  <
  5  1  -17  -2  32.54  -11.30  47.07  <
  5  1  17  -1  591.74  538.80  82.99  o
  5  1  -17  -1  636.53  506.79  79.37  o
  5  1  17  0  646.91  783.74  92.02  o
  5  1  -17  0  707.31  463.49  70.22  o
  5  1  17  1  293.58  267.44  65.95  o
  5  1  -17  1  302.20  308.88  67.79  o
  5  1  17  2  57.23  30.13  48.96  <
  5  1  -17  2  57.26  -37.66  45.19  <
  6  1  17  -2  109.70  156.29  62.11  <
  6  1  -17  -2  117.75  80.97  50.86  <
  6  1  17  -1  227.88  97.93  54.70  <
  6  1  -17  -1  217.01  173.26  60.30  <
  6  1  17  0  11647.20  11708.00  338.03  o
  6  1  -17  0  11773.60  11001.60  304.48  o
  6  1  17  1  2923.69  2688.03  154.03  o
  6  1  -17  1  2881.75  2621.87  137.28  o
  6  1  17  2  15.28  5.65  54.60  <
  6  1  -17  2  20.98  -47.07  45.18  <
  7  1  17  -2  49.15  -15.06  45.19  <
  7  1  -17  -2  53.32  -39.54  41.42  <
  7  1  17  -1  357.54  363.51  80.98  o
  7  1  -17  -1  398.44  299.48  77.34  o
  7  1  17  0  596.71  499.22  92.46  o
  7  1  -17  0  590.37  580.22  94.21  o
  7  1  17  1  336.71  391.75  84.69  o
  7  1  -17  1  359.46  480.28  84.59  o
  7  1  17  2  64.14  80.97  64.02  <
  7  1  -17  2  63.22  37.66  54.61  <
  8  1  17  -2  19.54  -16.95  50.84  <
  8  1  -17  -2  18.18  5.65  50.84  <
  8  1  17  -1  255.17  280.61  79.07  o
  8  1  -17  -1  270.47  282.50  73.44  o
  8  1  17  0  4175.22  3899.71  196.11  o
  8  1  -17  0  4113.40  3925.97  193.74  o
  8  1  17  1  593.47  589.63  97.96  o
  8  1  -17  1  574.99  493.55  83.02  o
  8  1  17  2  39.98  56.49  62.13  <
  8  1  -17  2  40.51  -7.53  52.72  <
  9  1  17  -2  19.43  60.25  64.01  <
  9  1  -17  -2  18.27  -35.78  56.48  <
  9  1  17  -1  711.52  536.93  98.25  o
  9  1  -17  -1  682.28  597.20  96.23  o
  9  1  17  0  1565.09  1702.38  146.64  o
  9  1  -17  0  1628.14  1432.86  162.62  o
  9  1  17  1  164.77  94.16  62.18  <
  9  1  -17  1  145.13  41.43  62.18  <
  9  1  17  2  12.62  52.72  62.13  <
  9  1  -17  2  9.96  -52.72  54.59  <
  10  1  17  -2  61.15  71.55  62.14  <
  10  1  -17  -2  53.58  24.48  65.91  <
  10  1  17  -1  93.47  71.55  77.21  <
  10  1  -17  -1  96.68  209.02  77.14  <
  10  1  17  0  130.50  133.70  69.67  <
  10  1  -17  0  123.23  154.41  69.66  <
  10  1  17  1  1621.43  1330.98  138.42  o
  10  1  -17  1  1642.35  1743.87  165.62  o
  10  1  17  2  56.51  -73.44  60.24  <
  10  1  -17  2  55.62  13.18  62.14  <
  11  1  17  -2  61.62  58.37  64.02  <
  11  1  -17  -2  62.77  52.72  67.79  <
  11  1  17  -1  393.03  237.32  90.54  <
  11  1  -17  -1  364.65  342.78  92.31  o
  11  1  17  0  847.16  678.27  128.38  o
  11  1  -17  0  780.72  795.05  113.01  o
  11  1  17  1  136.04  129.93  77.21  <
  11  1  -17  1  137.60  47.08  97.94  <
  11  1  17  2  32.36  15.06  67.79  <
  11  1  -17  2  29.86  43.31  90.38  <
  12  1  17  -2  10.99  -3.77  60.25  <
  12  1  -17  -2  15.32  -47.07  65.90  <
  12  1  17  -1  348.39  389.86  111.08  o
  12  1  -17  -1  366.75  246.73  92.39  <
  12  1  17  0  1314.81  1249.56  165.99  o
  12  1  -17  0  1355.23  1309.91  167.84  o
  12  1  17  1  255.07  161.96  94.21  <
  12  1  -17  1  283.59  367.24  135.54  <
  12  1  17  2  41.00  56.49  92.26  <
  12  1  -17  2  42.72  -52.72  82.84  <
  13  1  17  -2  4.03  -11.30  69.67  <
  13  1  -17  -2  4.84  0.00  96.03  <
  13  1  17  -1  408.31  393.64  113.02  o
  13  1  -17  -1  412.88  459.56  120.50  o
  13  1  17  0  301.00  175.15  101.77  <
  13  1  -17  0  282.83  265.54  109.24  <
  13  1  17  1  202.69  195.85  101.69  <
  13  1  -17  1  217.07  273.06  112.96  <
  1  2  17  -2  29.59  5.65  39.54  <
  1  2  -17  -2  28.19  41.42  47.07  <
  1  2  17  -1  283.60  339.01  65.85  o
  1  2  -17  -1  298.07  190.23  54.74  o
  1  2  17  0  792.23  537.01  79.67  o
  1  2  -17  0  823.27  638.78  83.32  o
  1  2  17  1  440.79  435.12  75.35  o
  1  2  -17  1  458.55  465.26  73.45  o
  1  2  17  2  55.77  5.65  48.96  <
  1  2  -17  2  56.51  84.73  50.83  <
  2  2  17  -2  82.75  58.37  47.09  <
  2  2  -17  -2  85.29  11.30  45.21  <
  2  2  17  -1  282.06  346.54  65.83  o
  2  2  -17  -1  304.39  224.13  54.72  o
  2  2  17  0  12814.40  11796.10  304.36  o
  2  2  -17  0  12840.10  11594.40  293.91  o
  2  2  17  1  1445.19  1259.37  119.32  o
  2  2  -17  1  1427.16  1242.38  100.56  o
  2  2  17  2  22.05  3.77  48.96  <
  2  2  -17  2  19.53  22.59  45.19  <
  3  2  17  -2  12.70  33.89  48.95  <
  3  2  -17  -2  12.30  1.88  45.19  <
  3  2  17  -1  50.80  65.90  50.84  <
  3  2  -17  -1  43.00  32.01  45.19  <
  3  2  17  0  441.85  384.26  75.43  o
  3  2  -17  0  437.87  440.77  69.69  o
  3  2  17  1  550.58  508.62  84.84  o
  3  2  -17  1  529.42  461.52  71.71  o
  3  2  17  2  40.03  26.36  50.84  <
  3  2  -17  2  46.33  35.78  48.96  <
  4  2  17  -2  1.87  -30.13  41.42  <
  4  2  -17  -2  1.05  0.00  45.19  <
  4  2  17  -1  24.74  39.54  50.84  <
  4  2  -17  -1  21.03  20.71  47.07  <
  4  2  17  0  2236.26  2052.61  127.22  o
  4  2  -17  0  2202.72  2018.59  132.83  o
  4  2  17  1  185.85  188.32  58.38  o
  4  2  -17  1  183.94  148.77  64.05  <
  4  2  17  2  12.29  -22.59  43.30  <
  4  2  -17  2  10.32  3.77  56.49  <
  5  2  17  -2  8.36  22.59  52.72  <
  5  2  -17  -2  6.29  7.53  48.96  <
  5  2  17  -1  416.38  480.31  80.90  o
  5  2  -17  -1  411.89  297.60  67.96  o
  5  2  17  0  374.73  395.53  80.96  o
  5  2  -17  0  332.38  465.21  86.47  o
  5  2  17  1  449.14  433.23  82.90  o
  5  2  -17  1  431.15  346.58  77.34  o
  5  2  17  2  24.55  15.06  47.07  <
  5  2  -17  2  23.74  35.78  50.84  <
  6  2  17  -2  54.03  60.26  58.37  <
  6  2  -17  -2  53.53  69.67  52.72  <
  6  2  17  -1  94.98  111.10  62.13  <
  6  2  -17  -1  96.05  143.11  62.11  <
  6  2  17  0  17814.20  18187.30  443.14  o
  6  2  -17  0  17831.10  17132.70  403.68  o
  6  2  17  1  1453.54  1464.75  128.15  o
  6  2  -17  1  1465.51  1608.03  120.16  o
  6  2  17  2  13.47  -69.67  45.17  <
  6  2  -17  2  15.34  -30.13  54.60  <
  7  2  17  -2  18.77  26.36  56.49  <
  7  2  -17  -2  17.30  22.59  54.60  <
  7  2  17  -1  394.62  459.58  92.21  o
  7  2  -17  -1  369.13  387.99  79.08  o
  7  2  17  0  139.80  107.34  64.04  <
  7  2  -17  0  120.95  165.71  62.11  <
  7  2  17  1  370.04  461.44  92.17  o
  7  2  -17  1  361.30  427.54  79.01  o
  7  2  17  2  85.18  69.67  65.91  <
  7  2  -17  2  81.27  97.92  62.13  <
  8  2  17  -2  77.30  13.18  56.50  <
  8  2  -17  -2  78.35  28.25  54.62  <
  8  2  17  -1  272.10  209.05  71.62  <
  8  2  -17  -1  281.13  256.13  71.59  o
  8  2  17  0  315.48  301.34  81.00  o
  8  2  -17  0  337.40  161.97  67.95  <
  8  2  17  1  22.07  -50.84  56.48  <
  8  2  -17  1  27.88  75.32  62.12  <
  8  2  17  2  35.70  37.66  67.79  <
  8  2  -17  2  41.99  26.36  58.37  <
  9  2  17  -2  37.61  22.60  56.49  <
  9  2  -17  -2  38.64  64.02  77.20  <
  9  2  17  -1  629.66  395.60  87.00  o
  9  2  -17  -1  631.01  636.73  99.83  o
  9  2  17  0  817.15  778.12  115.00  o
  9  2  -17  0  891.54  766.86  105.77  o
  9  2  17  1  551.36  480.34  99.93  o
  9  2  -17  1  581.26  672.49  103.45  o
  9  2  17  2  15.95  39.54  67.78  <
  9  2  -17  2  13.83  1.88  64.02  <
  10  2  17  -2  26.67  -3.77  58.37  <
  10  2  -17  -2  29.44  18.83  71.55  <
  10  2  17  -1  133.27  45.19  62.17  <
  10  2  -17  -1  144.93  96.04  73.46  <
  10  2  17  0  1519.03  1264.87  143.90  o
  10  2  -17  0  1386.24  1385.37  154.56  o
  10  2  17  1  428.77  436.97  97.93  o
  10  2  -17  1  434.25  274.99  90.56  o
  10  2  17  2  38.63  -13.18  79.08  <
  10  2  -17  2  35.75  39.54  71.55  <
  11  2  17  -2  31.03  24.48  77.20  <
  11  2  -17  -2  36.20  -28.24  69.67  <
  11  2  17  -1  303.55  299.45  88.52  o
  11  2  -17  -1  314.40  216.58  99.88  <
  11  2  17  0  494.92  497.26  107.36  o
  11  2  -17  0  483.92  395.55  114.98  o
  11  2  17  1  136.64  156.29  101.68  <
  11  2  -17  1  154.87  39.55  94.18  <
  11  2  17  2  83.32  -26.36  86.62  <
  11  2  -17  2  87.73  101.68  103.56  <
  12  2  17  -2  25.00  92.26  86.60  <
  12  2  -17  -2  23.91  15.06  80.97  <
  12  2  17  -1  154.35  97.92  90.41  <
  12  2  -17  -1  158.19  250.45  135.54  <
  12  2  17  0  2201.53  2112.18  196.39  o
  12  2  -17  0  2188.58  2434.64  223.73  o
  12  2  17  1  143.92  165.71  101.68  <
  12  2  -17  1  140.78  201.49  103.54  <
  13  2  17  -2  48.45  94.15  86.60  <
  13  2  -17  -2  49.82  -13.18  84.73  <
  13  2  17  -1  666.44  729.02  173.24  o
  13  2  -17  -1  650.13  615.99  186.52  o
  1  3  17  -2  58.00  96.03  52.71  <
  1  3  -17  -2  58.95  116.75  54.58  <
  1  3  17  -1  1575.57  1529.11  113.30  o
  1  3  -17  -1  1642.41  1425.50  112.03  o
  1  3  17  0  8120.57  7886.29  263.51  o
  1  3  -17  0  8016.06  7999.33  233.31  o
  1  3  17  1  21.46  -35.78  54.60  <
  1  3  -17  1  17.65  -45.19  48.95  <
  1  3  17  2  115.29  65.91  71.57  <
  1  3  -17  2  111.54  122.40  56.49  <
  2  3  17  -2  90.49  64.02  50.85  <
  2  3  -17  -2  91.89  101.68  47.07  <
  2  3  17  -1  1206.30  1149.76  111.36  o
  2  3  -17  -1  1221.21  997.10  93.05  o
  2  3  17  0  5966.71  6083.66  224.34  o
  2  3  -17  0  6000.92  6045.99  200.23  o
  2  3  17  1  1496.20  1306.42  126.85  o
  2  3  -17  1  1511.07  1395.04  107.87  o
  2  3  17  2  69.80  1.88  58.38  <
  2  3  -17  2  81.23  28.25  58.38  <
  3  3  17  -2  69.57  52.72  50.85  <
  3  3  -17  -2  71.94  41.43  47.08  <
  3  3  17  -1  785.99  668.87  90.68  o
  3  3  -17  -1  769.76  785.68  88.52  o
  3  3  17  0  2495.50  2298.09  142.38  o
  3  3  -17  0  2450.97  2420.64  130.33  o
  3  3  17  1  42.37  -1.88  54.61  <
  3  3  -17  1  41.92  32.01  54.61  <
  3  3  17  2  153.92  114.87  64.05  <
  3  3  -17  2  148.27  79.09  62.17  <
  4  3  17  -2  5.59  -1.88  47.07  <
  4  3  -17  -2  5.77  28.24  45.19  <
  4  3  17  -1  5.10  30.13  48.95  <
  4  3  -17  -1  10.46  -18.83  48.95  <
  4  3  17  0  35.45  77.20  52.71  <
  4  3  -17  0  48.38  143.10  65.86  <
  4  3  17  1  36.27  22.60  47.08  <
  4  3  -17  1  34.59  3.77  58.37  <
  4  3  17  2  25.78  -24.48  50.84  <
  4  3  -17  2  25.46  -5.65  58.37  <
  5  3  17  -2  58.86  18.83  50.85  <
  5  3  -17  -2  65.03  9.41  54.61  <
  5  3  17  -1  986.11  994.97  99.85  o
  5  3  -17  -1  969.72  940.31  111.25  o
  5  3  17  0  1928.29  2147.93  129.18  o
  5  3  -17  0  2084.64  1887.92  142.18  o
  5  3  17  1  10.68  60.25  56.48  <
  5  3  -17  1  14.66  18.83  56.49  <
  5  3  17  2  112.25  96.04  62.15  <
  5  3  -17  2  110.14  73.44  65.92  <
  6  3  17  -2  112.31  139.35  62.13  <
  6  3  -17  -2  120.09  94.15  54.62  <
  6  3  17  -1  777.86  706.53  94.35  o
  6  3  -17  -1  762.89  763.04  105.51  o
  6  3  17  0  5243.75  5407.31  197.34  o
  6  3  -17  0  5294.04  6056.04  229.37  o
  6  3  17  1  1610.00  1425.22  125.01  o
  6  3  -17  1  1545.18  1589.16  143.14  o
  6  3  17  2  18.28  0.00  58.37  <
  6  3  -17  2  19.09  -1.88  64.02  <
  7  3  17  -2  93.19  18.83  58.39  <
  7  3  -17  -2  99.16  -3.77  48.98  <
  7  3  17  -1  709.07  795.02  112.88  o
  7  3  -17  -1  718.63  533.16  85.12  o
  7  3  17  0  3111.89  3008.54  181.65  o
  7  3  -17  0  3049.49  3323.57  170.37  o
  7  3  17  1  88.58  184.54  71.50  <
  7  3  -17  1  98.94  -20.71  54.62  <
  7  3  17  2  99.84  160.06  75.29  <
  7  3  -17  2  96.55  129.93  69.66  <
  8  3  17  -2  10.99  -33.89  58.37  <
  8  3  -17  -2  9.42  33.89  52.72  <
  8  3  17  -1  588.65  706.40  110.95  o
  8  3  -17  -1  564.78  495.42  86.76  o
  8  3  17  0  1096.18  1143.86  137.46  o
  8  3  -17  0  1080.92  1010.05  117.00  o
  8  3  17  1  411.22  310.77  84.86  o
  8  3  -17  1  381.98  261.80  79.23  o
  8  3  17  2  35.40  9.41  67.79  <
  8  3  -17  2  35.26  13.18  67.79  <
  9  3  17  -2  36.15  116.74  71.52  <
  9  3  -17  -2  37.63  71.55  64.01  <
  9  3  17  -1  1099.99  1070.37  133.86  o
  9  3  -17  -1  1111.97  978.04  115.27  o
  9  3  17  0  5381.74  5729.79  251.25  o
  9  3  -17  0  5326.17  5461.13  343.47  o
  9  3  17  1  86.88  71.55  84.74  <
  9  3  -17  1  75.31  -56.49  69.66  <
  9  3  17  2  65.54  -3.77  75.32  <
  9  3  -17  2  54.28  -18.83  73.44  <
  10  3  17  -2  40.88  -16.95  65.90  <
  10  3  -17  -2  36.43  62.14  69.66  <
  10  3  17  -1  536.26  527.42  105.50  o
  10  3  -17  -1  544.67  470.91  99.93  o
  10  3  17  0  348.15  534.88  124.11  o
  10  3  -17  0  400.40  242.96  88.66  <
  10  3  17  1  1283.57  1025.23  162.55  o
  10  3  -17  1  1304.54  1483.22  154.10  o
  11  3  17  -2  121.33  101.68  77.21  <
  11  3  -17  -2  121.02  146.88  97.91  <
  11  3  17  -1  372.85  252.38  109.32  <
  11  3  -17  -1  379.29  178.92  101.83  <
  11  3  17  0  2706.99  2544.92  273.96  o
  11  3  -17  0  2828.41  2630.05  211.98  o
  12  3  17  -2  17.46  -50.84  80.96  <
  12  3  -17  -2  18.75  -33.89  88.49  <
  1  4  17  -2  173.47  75.33  62.19  <
  1  4  -17  -2  174.39  116.76  54.65  <
  1  4  17  -1  462.01  401.20  90.49  o
  1  4  -17  -1  456.67  427.57  77.27  o
  1  4  17  0  341.72  214.71  82.97  <
  1  4  -17  0  358.40  316.41  71.62  o
  1  4  17  1  1810.61  1525.32  151.65  o
  1  4  -17  1  1789.56  1868.44  152.46  o
  1  4  17  2  12.79  45.19  80.96  <
  1  4  -17  2  11.96  56.49  64.01  <
  2  4  17  -2  82.67  -43.31  48.96  <
  2  4  -17  -2  83.00  11.30  48.97  <
  2  4  17  -1  74.58  9.41  58.38  <
  2  4  -17  -1  100.80  33.89  52.74  <
  2  4  17  0  351.89  386.10  97.90  o
  2  4  -17  0  366.60  314.53  79.16  o
  2  4  17  1  703.82  683.85  118.71  o
  2  4  -17  1  701.46  640.52  101.83  o
  2  4  17  2  17.99  22.59  75.32  <
  2  4  -17  2  18.44  48.96  65.90  <
  3  4  17  -2  109.00  58.37  54.63  <
  3  4  -17  -2  112.86  128.05  62.13  <
  3  4  17  -1  220.89  160.07  67.84  <
  3  4  -17  -1  227.40  58.38  60.35  <
  3  4  17  0  1186.11  1185.41  130.04  o
  3  4  -17  0  1176.79  1117.55  124.53  o
  3  4  17  1  1744.71  1538.43  142.02  o
  3  4  -17  1  1690.46  1826.81  140.93  o
  3  4  17  2  14.70  77.20  75.30  <
  3  4  -17  2  17.14  35.78  65.90  <
  4  4  17  -2  2.72  -7.53  45.19  <
  4  4  -17  -2  2.92  -62.14  54.59  <
  4  4  17  -1  24.50  15.06  48.96  <
  4  4  -17  -1  18.38  9.41  58.37  <
  4  4  17  0  1756.16  1561.10  126.99  o
  4  4  -17  0  1751.82  2024.90  159.38  o
  4  4  17  1  167.69  112.99  64.06  <
  4  4  -17  1  166.66  65.91  71.60  <
  4  4  17  2  8.86  -22.59  67.78  <
  4  4  -17  2  10.15  -20.71  69.67  <
  5  4  17  -2  102.22  126.16  60.24  <
  5  4  -17  -2  101.14  182.65  71.51  <
  5  4  17  -1  466.93  487.84  84.73  o
  5  4  -17  -1  494.66  357.88  86.82  o
  5  4  17  0  825.77  985.36  112.69  o
  5  4  -17  0  806.30  891.14  120.42  o
  5  4  17  1  1536.39  1511.77  130.14  o
  5  4  -17  1  1480.38  1360.91  145.45  o
  5  4  17  2  3.92  -65.90  67.77  <
  5  4  -17  2  3.31  -22.59  69.67  <
  6  4  17  -2  44.07  32.01  54.61  <
  6  4  -17  -2  41.43  5.65  54.61  <
  6  4  17  -1  33.41  56.49  56.48  <
  6  4  -17  -1  44.49  26.36  64.02  <
  6  4  17  0  1847.41  2013.67  144.58  o
  6  4  -17  0  1879.73  1734.66  156.94  o
  6  4  17  1  967.06  1017.47  129.91  o
  6  4  -17  1  969.72  936.45  126.31  o
  7  4  17  -2  82.90  32.01  62.15  <
  7  4  -17  -2  75.87  16.95  56.50  <
  7  4  17  -1  230.78  239.17  77.20  o
  7  4  -17  -1  213.19  184.55  71.58  <
  7  4  17  0  216.76  152.54  84.78  <
  7  4  -17  0  189.20  224.09  77.18  <
  7  4  17  1  1477.08  1630.42  167.37  o
  7  4  -17  1  1573.24  1494.81  162.31  o
  8  4  17  -2  15.81  33.89  65.90  <
  8  4  -17  -2  16.24  22.59  62.14  <
  8  4  17  -1  284.61  372.89  99.73  o
  8  4  -17  -1  306.55  312.63  92.28  o
  8  4  17  0  66.91  62.14  77.20  <
  8  4  -17  0  86.35  35.78  73.45  <
  9  4  17  -2  56.53  13.18  82.85  <
  9  4  -17  -2  55.27  -77.20  64.00  <
  9  4  17  -1  422.44  363.51  116.83  o
  9  4  -17  -1  416.31  459.56  101.66  o
  10  4  17  -2  54.75  -16.95  80.97  <
  10  4  -17  -2  59.51  32.01  71.56  <
  1  5  17  -2  23.92  18.83  69.67  <
  1  5  -17  -2  23.29  -39.54  47.07  <
  1  5  17  -1  1563.14  1338.39  155.12  o
  1  5  -17  -1  1596.31  1747.49  144.68  o
  1  5  17  0  4784.16  4504.25  241.38  o
  1  5  -17  0  4793.50  4268.10  235.06  o
  2  5  17  -2  15.49  11.30  64.02  <
  2  5  -17  -2  20.07  -60.25  58.36  <
  2  5  17  -1  1057.66  966.67  137.73  o
  2  5  -17  -1  1052.78  1234.25  127.69  o
  2  5  17  0  1383.41  1360.79  158.37  o
  2  5  -17  0  1399.36  1658.60  151.95  o
  3  5  17  -2  57.20  16.95  65.91  <
  3  5  -17  -2  59.02  16.95  56.50  <
  3  5  17  -1  613.06  572.65  103.67  o
  3  5  -17  -1  614.10  418.19  90.70  o
  3  5  17  0  726.29  531.25  111.43  o
  3  5  -17  0  700.77  625.43  111.26  o
  4  5  17  -2  6.79  7.53  52.72  <
  4  5  -17  -2  6.96  5.65  62.14  <
  4  5  17  -1  18.35  11.30  62.14  <
  4  5  -17  -1  17.14  92.26  71.53  <
  4  5  -17  0  14.52  -22.59  90.38  <
  5  5  17  -2  20.37  37.66  58.37  <
  5  5  -17  -2  28.48  64.02  71.54  <
  5  5  17  -1  760.60  755.45  107.39  o
  5  5  -17  -1  757.11  627.34  113.24  o
  6  5  17  -2  5.74  -9.41  62.14  <
  6  5  -17  -2  7.47  -9.41  65.90  <
  6  5  17  -1  660.71  806.26  120.32  o
  6  5  -17  -1  627.09  734.66  126.05  o
  7  5  17  -2  56.86  47.07  79.09  <
  7  5  -17  -2  60.74  -37.66  75.32  <
  8  5  17  -2  7.76  -75.32  69.65  <
  8  5  -17  -2  5.74  71.55  82.84  <
  0  0  18  0  5467.44  6472.45  456.29  o
  0  0  -18  0  5451.39  5970.84  446.73  o
  0  0  18  1  1747.26  1893.50  173.09  o
  0  0  -18  1  1798.63  2272.69  190.98  o
  0  0  18  2  60.35  50.84  60.26  <
  0  0  -18  2  65.88  -15.06  62.14  <
  1  0  18  1  267.75  342.77  73.36  o
  1  0  -18  1  246.80  229.76  65.93  o
  1  0  18  2  11.34  -3.77  43.31  <
  1  0  -18  2  10.89  47.07  50.83  <
  2  0  18  0  1180.44  1490.99  172.75  o
  2  0  -18  0  1188.25  1317.59  161.84  o
  2  0  18  1  42.05  -11.30  45.19  <
  2  0  -18  1  39.01  101.68  56.46  <
  2  0  18  2  10.71  5.65  43.31  <
  2  0  -18  2  10.41  -15.06  47.07  <
  3  0  18  1  282.96  227.89  67.85  o
  3  0  -18  1  313.34  201.53  64.15  o
  3  0  18  2  1.52  24.48  47.07  <
  3  0  -18  2  1.32  -50.84  47.06  <
  4  0  18  0  31068.30  32624.20  920.36  o
  4  0  -18  0  31000.10  32937.70  894.92  o
  4  0  18  1  2614.64  2698.83  150.59  o
  4  0  -18  1  2626.65  2772.46  148.39  o
  4  0  18  2  5.77  30.13  50.84  <
  4  0  -18  2  5.87  26.36  45.19  <
  5  0  18  1  15.44  71.55  54.59  <
  5  0  -18  1  21.43  -67.79  45.17  <
  5  0  18  2  29.73  -11.30  48.96  <
  5  0  -18  2  29.56  18.83  50.84  <
  6  0  18  0  22.75  -22.60  79.08  <
  6  0  -18  0  21.55  24.48  75.32  <
  6  0  18  1  207.02  30.13  50.93  <
  6  0  -18  1  206.38  124.29  58.44  <
  6  0  18  2  60.46  30.13  58.38  <
  6  0  -18  2  62.15  -15.06  50.84  <
  7  0  18  1  52.13  -16.95  50.84  <
  7  0  -18  1  45.65  20.71  58.38  <
  7  0  18  2  13.54  -75.32  50.82  <
  7  0  -18  2  13.19  28.24  58.37  <
  8  0  18  0  6673.93  5427.34  479.22  o
  8  0  -18  0  6899.26  5943.32  336.12  o
  8  0  18  1  2247.52  2457.85  155.71  o
  8  0  -18  1  2226.76  1990.01  168.65  o
  8  0  18  2  61.00  -3.77  60.26  <
  8  0  -18  2  63.41  82.85  62.13  <
  9  0  18  1  42.66  -45.19  62.13  <
  9  0  -18  1  42.24  126.16  69.64  <
  9  0  18  2  62.20  116.75  71.53  <
  9  0  -18  2  62.59  -5.65  69.67  <
  10  0  18  0  544.87  544.38  209.09  <
  10  0  -18  0  530.98  474.68  135.68  o
  10  0  18  1  48.39  77.20  79.08  <
  10  0  -18  1  47.53  94.15  73.42  <
  10  0  18  2  42.90  75.32  79.08  <
  10  0  -18  2  42.02  50.84  80.97  <
  11  0  18  1  245.44  158.19  86.68  <
  11  0  -18  1  240.81  370.99  97.81  o
  11  0  18  2  16.05  103.56  84.71  <
  11  0  -18  2  14.17  1.88  79.08  <
  12  0  18  0  5896.60  5790.07  527.89  o
  12  0  -18  0  5761.31  5778.16  357.28  o
  12  0  18  1  600.78  721.46  137.35  o
  12  0  -18  1  653.33  591.51  105.59  o
  12  0  18  2  10.05  54.60  82.84  <
  12  0  -18  2  11.53  60.25  86.61  <
  0  1  18  -2  196.77  65.91  67.85  <
  0  1  -18  -2  181.42  184.55  90.39  <
  0  1  18  -1  1356.33  1600.59  170.98  o
  0  1  -18  -1  1367.75  1376.26  164.00  o
  0  1  18  0  18216.10  19888.30  537.44  o
  0  1  -18  0  18361.80  19172.90  621.45  o
  0  1  18  1  195.48  205.27  79.09  <
  0  1  -18  1  200.19  267.42  96.00  <
  0  1  18  2  64.14  3.77  58.38  <
  0  1  -18  2  62.06  -33.89  52.72  <
  1  1  18  -2  36.00  54.61  52.72  <
  1  1  -18  -2  34.73  -32.01  45.19  <
  1  1  18  -1  921.17  966.75  107.31  o
  1  1  -18  -1  942.91  976.19  107.34  o
  1  1  18  0  891.62  945.98  92.19  o
  1  1  -18  0  911.39  889.47  105.58  o
  1  1  18  1  150.36  35.78  45.25  <
  1  1  -18  1  141.66  180.78  60.23  o
  1  1  18  2  101.61  20.71  43.33  <
  1  1  -18  2  101.08  47.08  50.86  <
  2  1  18  -2  0.71  -18.83  47.07  <
  2  1  -18  -2  1.01  -13.18  45.19  <
  2  1  18  -1  92.49  114.87  54.60  <
  2  1  -18  -1  91.12  73.44  54.62  <
  2  1  18  0  6669.16  6355.36  199.73  o
  2  1  -18  0  6637.89  6360.87  231.27  o
  2  1  18  1  110.82  73.44  48.98  <
  2  1  -18  1  103.35  43.31  50.86  <
  2  1  18  2  2.21  16.95  45.19  <
  2  1  -18  2  1.73  -22.59  47.07  <
  3  1  18  -2  34.44  15.06  47.08  <
  3  1  -18  -2  33.68  3.77  48.96  <
  3  1  18  -1  1503.56  1693.14  121.88  o
  3  1  -18  -1  1543.36  1753.54  129.37  o
  3  1  18  0  505.20  574.54  78.99  o
  3  1  -18  0  526.31  472.83  79.21  o
  3  1  18  1  270.53  216.58  58.44  o
  3  1  -18  1  290.37  246.72  69.73  o
  3  1  18  2  93.64  112.98  50.83  <
  3  1  -18  2  95.70  86.62  56.50  <
  4  1  18  -2  152.53  99.81  60.29  <
  4  1  -18  -2  158.14  116.76  58.40  <
  4  1  18  -1  37.97  7.53  48.96  <
  4  1  -18  -1  21.08  22.60  52.72  <
  4  1  18  0  470.68  372.97  75.49  o
  4  1  -18  0  447.36  425.70  77.26  o
  4  1  18  1  433.41  374.83  73.54  o
  4  1  -18  1  436.29  280.66  68.01  o
  4  1  18  2  10.44  43.31  52.72  <
  4  1  -18  2  11.69  -65.90  41.40  <
  5  1  18  -2  49.74  56.49  54.60  <
  5  1  -18  -2  49.38  45.19  54.61  <
  5  1  18  -1  1196.71  1264.73  122.33  o
  5  1  -18  -1  1137.98  1183.63  112.96  o
  5  1  18  0  272.07  135.60  62.26  <
  5  1  -18  0  250.51  282.49  67.76  o
  5  1  18  1  310.77  367.26  77.15  o
  5  1  -18  1  300.72  261.79  67.84  o
  5  1  18  2  123.87  109.22  60.27  <
  5  1  -18  2  125.54  58.38  62.17  <
  6  1  18  -2  12.18  30.13  56.49  <
  6  1  -18  -2  11.58  18.83  50.84  <
  6  1  18  -1  6.40  20.71  50.84  <
  6  1  -18  -1  14.70  1.88  47.07  <
  6  1  18  0  556.12  572.67  96.05  o
  6  1  -18  0  593.24  542.54  94.27  o
  6  1  18  1  199.48  197.74  73.45  <
  6  1  -18  1  215.18  199.62  65.93  o
  6  1  18  2  13.01  -58.37  52.71  <
  6  1  -18  2  15.24  11.30  50.84  <
  7  1  18  -2  89.69  160.06  71.52  <
  7  1  -18  -2  83.91  13.18  58.39  <
  7  1  18  -1  1228.30  1019.68  123.01  o
  7  1  -18  -1  1154.54  1415.40  131.23  o
  7  1  18  0  365.76  263.68  82.97  o
  7  1  -18  0  337.14  248.61  75.42  o
  7  1  18  1  397.70  448.27  92.23  o
  7  1  -18  1  400.13  267.46  81.13  o
  7  1  18  2  88.25  45.19  60.27  <
  7  1  -18  2  85.34  52.72  56.50  <
  8  1  18  -2  97.66  18.83  56.51  <
  8  1  -18  -2  90.93  101.68  71.55  <
  8  1  18  -1  437.10  510.44  95.96  o
  8  1  -18  -1  442.93  444.52  111.13  o
  8  1  18  0  1792.97  1806.39  150.80  o
  8  1  -18  0  1807.27  1878.06  156.28  o
  8  1  18  1  118.29  79.09  65.92  <
  8  1  -18  1  106.66  114.87  65.90  <
  8  1  18  2  48.83  35.78  60.26  <
  8  1  -18  2  51.04  -1.88  54.61  <
  9  1  18  -2  73.49  60.26  67.79  <
  9  1  -18  -2  70.28  16.95  64.03  <
  9  1  18  -1  859.44  945.84  129.84  o
  9  1  -18  -1  953.41  830.97  137.76  o
  9  1  18  0  578.92  518.03  98.04  o
  9  1  -18  0  555.53  527.44  113.06  o
  9  1  18  1  122.19  97.92  73.45  <
  9  1  -18  1  141.44  193.96  90.36  <
  9  1  18  2  118.15  65.91  71.57  <
  9  1  -18  2  108.31  -3.77  60.27  <
  10  1  18  -2  19.03  71.55  75.31  <
  10  1  -18  -2  24.55  20.71  64.02  <
  10  1  18  -1  604.01  585.85  120.58  o
  10  1  -18  -1  591.90  420.07  105.70  o
  10  1  18  0  6968.82  6331.43  306.50  o
  10  1  -18  0  7089.34  6750.35  312.44  o
  10  1  18  1  534.12  576.39  103.54  o
  10  1  -18  1  509.88  491.62  116.80  o
  10  1  18  2  17.56  -24.48  65.90  <
  10  1  -18  2  21.64  50.84  80.96  <
  11  1  18  -2  24.75  16.95  71.55  <
  11  1  -18  -2  24.46  28.24  71.55  <
  11  1  18  -1  939.90  949.64  146.95  o
  11  1  -18  -1  984.22  723.56  115.43  o
  11  1  18  0  637.64  448.34  118.89  o
  11  1  -18  0  668.54  610.36  130.06  o
  11  1  18  1  74.26  65.90  88.50  <
  11  1  -18  1  72.78  5.65  97.92  <
  11  1  18  2  10.95  1.88  65.90  <
  11  1  -18  2  12.19  73.43  116.73  <
  12  1  18  -2  70.86  92.27  86.61  <
  12  1  -18  -2  69.29  62.14  73.44  <
  12  1  18  -1  36.01  -88.50  82.83  <
  12  1  -18  -1  38.17  -69.67  75.30  <
  12  1  18  0  3455.73  3250.41  232.95  o
  12  1  -18  0  3503.62  2982.48  378.69  o
  12  1  18  1  253.57  222.22  111.13  <
  12  1  -18  1  261.09  88.51  122.46  <
  12  1  18  2  8.27  -48.96  82.84  <
  12  1  -18  2  9.86  -56.49  111.09  <
  13  1  18  -2  59.28  -43.31  133.69  <
  13  1  -18  -2  64.02  62.14  182.65  <
  0  2  18  -2  142.74  103.57  75.34  <
  0  2  -18  -2  151.75  -11.30  67.82  <
  0  2  18  -1  93.01  18.83  62.15  <
  0  2  -18  -1  117.54  -60.26  48.96  <
  0  2  18  0  6853.21  7038.58  317.13  o
  0  2  -18  0  6940.65  5868.45  282.93  o
  0  2  18  1  5056.81  4324.64  245.70  o
  0  2  -18  1  5125.29  4829.80  243.66  o
  0  2  18  2  55.98  71.55  90.38  <
  0  2  -18  2  59.47  16.95  71.56  <
  1  2  18  -2  80.11  105.45  52.71  <
  1  2  -18  -2  78.65  96.03  56.48  <
  1  2  18  -1  348.32  235.43  60.41  o
  1  2  -18  -1  338.54  256.15  62.25  o
  1  2  18  0  224.65  203.39  60.28  o
  1  2  -18  0  233.32  156.31  56.56  <
  1  2  18  1  475.62  371.08  69.86  o
  1  2  -18  1  453.34  308.91  66.13  o
  1  2  18  2  8.64  -52.72  52.71  <
  1  2  -18  2  9.20  32.01  50.84  <
  2  2  18  -2  13.52  -13.18  41.42  <
  2  2  -18  -2  13.22  3.77  48.96  <
  2  2  18  -1  6.58  -39.54  39.53  <
  2  2  -18  -1  6.11  -35.78  45.18  <
  2  2  18  0  1.34  15.06  45.19  <
  2  2  -18  0  1.74  -13.18  45.19  <
  2  2  18  1  8.03  -28.24  48.95  <
  2  2  -18  1  6.42  47.07  48.95  <
  2  2  18  2  7.08  1.88  50.84  <
  2  2  -18  2  6.89  -71.55  41.40  <
  3  2  18  -2  47.24  33.89  48.96  <
  3  2  -18  -2  46.26  90.38  52.71  <
  3  2  18  -1  284.56  301.34  67.78  o
  3  2  -18  -1  284.44  254.25  65.95  o
  3  2  18  0  1052.54  1017.67  111.28  o
  3  2  -18  0  981.97  904.54  101.95  o
  3  2  18  1  327.07  384.21  77.15  o
  3  2  -18  1  341.18  297.58  67.86  o
  3  2  18  2  6.51  0.00  52.72  <
  3  2  -18  2  8.09  -13.18  47.07  <
  4  2  18  -2  17.32  56.49  48.95  <
  4  2  -18  -2  19.46  32.01  48.95  <
  4  2  18  -1  77.05  67.79  56.49  <
  4  2  -18  -1  85.52  67.79  56.50  <
  4  2  18  0  13985.50  14015.10  355.92  o
  4  2  -18  0  13808.00  12815.00  363.97  o
  4  2  18  1  3902.65  4106.51  176.32  o
  4  2  -18  1  3876.34  4023.31  180.47  o
  4  2  18  2  54.24  56.49  54.61  <
  4  2  -18  2  46.90  -7.53  58.37  <
  5  2  18  -2  67.13  -1.88  50.85  <
  5  2  -18  -2  61.24  54.61  52.73  <
  5  2  18  -1  215.77  173.26  69.71  <
  5  2  -18  -1  216.13  184.56  65.94  <
  5  2  18  0  1501.75  1274.41  128.83  o
  5  2  -18  0  1577.49  1606.31  145.09  o
  5  2  18  1  436.71  374.83  79.19  o
  5  2  -18  1  472.48  406.86  84.85  o
  5  2  18  2  39.82  22.60  58.37  <
  5  2  -18  2  40.93  62.14  62.13  <
  6  2  18  -2  9.55  39.54  56.48  <
  6  2  -18  -2  9.82  32.01  54.60  <
  6  2  18  -1  196.77  267.41  80.92  o
  6  2  -18  -1  190.20  195.85  65.91  <
  6  2  18  0  170.46  197.73  71.54  <
  6  2  -18  0  183.36  186.43  65.91  <
  6  2  18  1  40.78  80.97  64.01  <
  6  2  -18  1  43.33  -22.60  50.84  <
  6  2  18  2  5.27  67.78  60.24  <
  6  2  -18  2  4.09  -3.77  54.60  <
  7  2  18  -2  30.42  69.67  60.24  <
  7  2  -18  -2  27.59  114.86  67.76  <
  7  2  18  -1  285.26  284.38  84.75  o
  7  2  -18  -1  266.50  316.39  79.05  o
  7  2  18  0  1141.54  1304.13  140.96  o
  7  2  -18  0  1209.07  1209.97  124.39  o
  7  2  18  1  246.26  224.11  79.11  <
  7  2  -18  1  260.86  242.94  75.35  o
  7  2  18  2  6.98  -28.24  58.37  <
  7  2  -18  2  7.12  0.00  58.37  <
  8  2  18  -2  84.49  -15.06  60.26  <
  8  2  -18  -2  86.46  116.75  69.66  <
  8  2  18  -1  70.96  28.24  64.03  <
  8  2  -18  -1  67.88  62.14  56.49  <
  8  2  18  0  4987.45  5381.22  232.01  o
  8  2  -18  0  5170.40  5122.99  213.92  o
  8  2  18  1  3873.10  4033.68  201.22  o
  8  2  -18  1  3828.48  3733.29  174.28  o
  8  2  18  2  53.79  58.37  75.32  <
  8  2  -18  2  51.06  39.54  64.02  <
  9  2  18  -2  19.47  7.53  64.02  <
  9  2  -18  -2  20.44  35.78  84.73  <
  9  2  18  -1  36.27  60.25  67.78  <
  9  2  -18  -1  30.63  47.07  67.78  <
  9  2  18  0  381.67  308.88  88.59  o
  9  2  -18  0  355.74  214.71  75.47  <
  9  2  18  1  306.92  241.07  86.69  <
  9  2  -18  1  269.98  242.94  79.12  o
  9  2  18  2  58.69  62.14  75.32  <
  9  2  -18  2  59.89  -28.24  62.14  <
  10  2  18  -2  62.77  67.79  69.67  <
  10  2  -18  -2  63.26  15.06  80.97  <
  10  2  18  -1  247.56  173.26  75.38  <
  10  2  -18  -1  257.06  107.35  88.58  <
  10  2  18  0  719.87  683.85  124.39  o
  10  2  -18  0  697.81  610.37  118.81  o
  10  2  18  1  36.65  35.78  75.32  <
  10  2  -18  1  39.74  43.31  77.20  <
  10  2  18  2  54.64  -13.18  71.55  <
  10  2  -18  2  57.60  -79.08  65.89  <
  11  2  18  -2  47.85  33.89  82.85  <
  11  2  -18  -2  45.60  41.42  88.50  <
  11  2  18  -1  103.81  82.85  79.09  <
  11  2  -18  -1  97.28  -18.83  101.69  <
  11  2  18  0  410.35  436.96  99.79  o
  11  2  -18  0  400.34  340.90  114.94  <
  11  2  18  1  127.39  124.28  86.62  <
  11  2  -18  1  125.65  242.91  114.81  <
  12  2  18  -2  19.22  -15.06  79.08  <
  12  2  -18  -2  22.62  33.89  112.97  <
  12  2  18  -1  41.94  50.84  96.03  <
  12  2  -18  -1  48.58  205.24  127.99  <
  0  3  18  -2  89.57  152.53  71.52  <
  0  3  -18  -2  78.89  16.95  65.91  <
  0  3  18  -1  1729.41  1985.54  184.09  o
  0  3  -18  -1  1698.58  1800.71  175.08  o
  0  3  18  0  4419.48  4520.00  303.83  o
  0  3  -18  0  4651.43  3823.44  243.77  o
  0  3  18  1  104.51  39.54  92.28  <
  0  3  -18  1  97.03  141.23  92.25  <
  0  3  18  2  81.44  73.44  105.45  <
  0  3  -18  2  88.11  -9.42  79.09  <
  1  3  18  -2  14.54  -47.07  41.41  <
  1  3  -18  -2  13.51  -11.30  45.19  <
  1  3  18  -1  713.86  663.17  99.94  o
  1  3  -18  -1  707.75  582.16  83.15  o
  1  3  18  0  3516.63  3555.56  182.96  o
  1  3  -18  0  3387.86  3166.26  156.05  o
  1  3  18  1  402.68  367.28  90.45  o
  1  3  -18  1  386.98  387.99  75.34  o
  1  3  18  2  107.45  231.61  80.89  <
  1  3  -18  2  106.49  86.62  58.38  <
  2  3  18  -2  3.20  -37.66  50.83  <
  2  3  -18  -2  3.40  -11.30  45.19  <
  2  3  18  -1  74.71  18.83  52.73  <
  2  3  -18  -1  70.03  5.65  47.08  <
  2  3  18  0  1516.51  1438.40  137.84  o
  2  3  -18  0  1499.04  1566.57  120.42  o
  2  3  18  1  77.72  37.66  56.50  <
  2  3  -18  1  71.40  22.60  52.73  <
  2  3  18  2  5.49  -22.59  69.67  <
  2  3  -18  2  4.55  -37.66  54.60  <
  3  3  18  -2  18.10  39.54  54.60  <
  3  3  -18  -2  14.10  13.18  48.96  <
  3  3  18  -1  637.09  608.49  96.13  o
  3  3  -18  -1  622.09  676.30  88.43  o
  3  3  18  0  2040.55  2329.15  144.03  o
  3  3  -18  0  2251.01  2050.37  134.77  o
  3  3  18  1  174.22  135.59  65.93  <
  3  3  -18  1  173.37  244.81  75.27  o
  3  3  18  2  159.61  207.14  79.06  <
  3  3  -18  2  158.91  26.36  60.30  <
  4  3  18  -2  64.52  56.49  62.14  <
  4  3  -18  -2  73.26  141.23  65.87  <
  4  3  18  -1  998.55  925.24  105.70  o
  4  3  -18  -1  1020.09  942.22  117.01  o
  4  3  18  0  2256.54  2323.84  133.61  o
  4  3  -18  0  2154.34  2161.45  148.97  o
  4  3  18  1  795.61  734.78  94.33  o
  4  3  -18  1  796.21  685.79  107.59  o
  4  3  18  2  59.29  60.26  60.25  <
  4  3  -18  2  56.96  -37.66  62.14  <
  5  3  18  -2  14.43  -7.53  48.96  <
  5  3  -18  -2  15.70  -7.53  54.60  <
  5  3  18  -1  724.78  672.58  98.06  o
  5  3  -18  -1  735.65  682.00  101.83  o
  5  3  18  0  2824.89  3107.92  170.39  o
  5  3  -18  0  2774.68  2879.48  167.46  o
  5  3  18  1  213.82  154.42  62.19  <
  5  3  -18  1  228.61  218.45  80.99  <
  5  3  18  2  141.53  60.26  60.29  <
  5  3  -18  2  140.88  163.83  73.43  <
  6  3  18  -2  16.31  -15.06  50.84  <
  6  3  -18  -2  17.48  33.89  52.72  <
  6  3  18  -1  54.04  18.83  54.61  <
  6  3  -18  -1  62.00  -15.06  56.49  <
  6  3  18  0  545.06  644.22  101.56  o
  6  3  -18  0  539.22  308.92  83.17  o
  6  3  18  1  182.76  184.55  67.79  <
  6  3  -18  1  194.15  141.24  73.47  <
  6  3  18  2  14.79  -1.88  58.37  <
  6  3  -18  2  17.91  43.31  65.90  <
  7  3  18  -2  161.80  54.61  67.83  <
  7  3  -18  -2  158.45  -62.14  52.74  <
  7  3  18  -1  1389.31  1219.53  132.38  o
  7  3  -18  -1  1390.54  1304.35  126.53  o
  7  3  18  0  3000.94  2692.94  180.55  o
  7  3  -18  0  2851.61  3153.05  179.79  o
  7  3  18  1  400.85  329.60  90.48  o
  7  3  -18  1  427.91  295.71  84.90  o
  7  3  18  2  73.89  99.80  77.19  <
  7  3  -18  2  71.60  24.48  69.68  <
  8  3  18  -2  47.00  48.96  62.14  <
  8  3  -18  -2  44.78  107.33  67.76  <
  8  3  18  -1  1102.85  1096.75  135.69  o
  8  3  -18  -1  1094.11  1077.90  120.64  o
  8  3  18  0  52.95  -60.25  62.13  <
  8  3  -18  0  66.76  173.23  77.15  <
  8  3  18  1  192.58  165.72  86.64  <
  8  3  -18  1  183.87  165.72  77.22  <
  8  3  18  2  64.37  39.54  84.74  <
  8  3  -18  2  73.85  9.41  69.68  <
  9  3  18  -2  10.34  -5.65  62.14  <
  9  3  -18  -2  9.61  28.24  60.25  <
  9  3  18  -1  542.76  446.42  101.84  o
  9  3  -18  -1  603.84  482.23  96.25  o
  9  3  18  0  1324.88  1454.99  158.01  o
  9  3  -18  0  1384.17  1498.40  159.93  o
  9  3  18  1  336.24  231.65  105.54  <
  9  3  -18  1  341.02  306.98  96.08  o
  10  3  18  -2  19.43  1.88  67.79  <
  10  3  -18  -2  21.35  77.20  86.60  <
  10  3  18  -1  206.70  229.75  86.61  <
  10  3  -18  -1  182.50  216.56  90.37  <
  10  3  18  0  4909.34  5141.31  288.01  o
  10  3  -18  0  4948.55  5045.08  243.22  o
  11  3  18  -2  25.32  88.50  77.18  <
  11  3  -18  -2  23.18  -37.66  90.38  <
  11  3  18  -1  735.34  761.09  152.56  o
  11  3  -18  -1  762.68  736.61  148.86  o
  0  4  18  -2  225.15  37.66  101.74  <
  0  4  -18  -2  231.27  -3.77  69.75  <
  0  4  18  -1  612.88  259.96  126.49  <
  0  4  -18  -1  594.49  527.45  130.05  o
  0  4  18  0  35.30  94.15  116.73  <
  0  4  -18  0  6.09  62.14  79.07  <
  0  4  18  1  1705.03  1636.39  228.25  o
  0  4  -18  1  1703.00  1904.09  184.22  o
  0  4  18  2  53.86  62.14  126.16  <
  0  4  -18  2  52.29  -18.83  103.56  <
  1  4  18  -2  167.19  88.51  64.06  <
  1  4  -18  -2  159.65  109.22  58.41  <
  1  4  18  -1  1234.04  859.41  125.18  o
  1  4  -18  -1  1237.03  1251.43  116.81  o
  1  4  18  0  264.84  299.44  92.25  o
  1  4  -18  0  303.82  150.66  67.92  <
  1  4  18  1  1222.31  1334.28  154.28  o
  1  4  -18  1  1196.04  1466.17  142.53  o
  1  4  18  2  108.09  88.50  88.51  <
  1  4  -18  2  108.69  9.42  65.92  <
  2  4  18  -2  1.89  0.00  54.60  <
  2  4  -18  -2  1.69  -45.19  47.06  <
  2  4  18  -1  8.01  -18.83  56.49  <
  2  4  -18  -1  9.81  -13.18  54.60  <
  2  4  18  0  123.96  109.22  73.45  <
  2  4  -18  0  130.19  148.76  67.78  <
  2  4  18  1  19.86  37.66  69.67  <
  2  4  -18  1  17.77  28.24  67.78  <
  2  4  18  2  4.50  3.77  71.55  <
  2  4  -18  2  3.60  60.25  73.42  <
  3  4  18  -2  151.24  112.99  65.93  <
  3  4  -18  -2  145.87  116.75  65.92  <
  3  4  18  -1  833.59  913.78  112.88  o
  3  4  -18  -1  856.00  787.56  103.77  o
  3  4  18  0  609.94  512.38  105.62  o
  3  4  -18  0  601.73  631.05  99.79  o
  3  4  18  1  737.28  879.78  120.31  o
  3  4  -18  1  745.59  785.59  116.73  o
  3  4  18  2  167.66  13.18  69.71  <
  3  4  -18  2  172.35  150.65  84.75  <
  4  4  18  -2  80.15  35.78  60.27  <
  4  4  -18  -2  75.22  62.14  65.91  <
  4  4  18  -1  561.84  376.74  77.51  o
  4  4  -18  -1  573.69  431.37  96.26  o
  4  4  18  0  4676.22  5161.81  204.69  o
  4  4  -18  0  4685.28  5190.18  231.38  o
  4  4  18  1  1506.12  1451.40  149.05  o
  4  4  -18  1  1532.13  1396.76  153.02  o
  5  4  18  -2  174.32  126.17  62.17  <
  5  4  -18  -2  168.87  146.88  71.57  <
  5  4  18  -1  830.50  546.38  87.23  o
  5  4  -18  -1  761.66  612.29  107.63  o
  5  4  18  0  1643.25  1838.02  133.16  o
  5  4  -18  0  1594.31  1613.63  158.29  o
  5  4  18  1  742.62  655.59  96.24  o
  5  4  -18  1  797.18  768.66  124.39  o
  6  4  18  -2  4.09  41.42  62.13  <
  6  4  -18  -2  4.53  -64.02  62.12  <
  6  4  18  -1  108.32  114.86  65.90  <
  6  4  -18  -1  104.37  35.78  67.81  <
  6  4  18  0  43.84  -18.83  64.02  <
  6  4  -18  0  49.01  47.07  69.67  <
  6  4  18  1  39.87  26.36  105.45  <
  6  4  -18  1  44.50  -7.53  73.44  <
  7  4  18  -2  110.93  156.29  80.95  <
  7  4  -18  -2  105.88  152.53  73.42  <
  7  4  18  -1  940.68  644.39  113.57  o
  7  4  -18  -1  913.12  919.46  118.69  o
  7  4  18  0  1296.58  1241.97  150.89  o
  7  4  -18  0  1253.85  1322.97  144.95  o
  8  4  18  -2  108.91  37.66  73.45  <
  8  4  -18  -2  105.16  109.22  71.55  <
  8  4  18  -1  325.77  167.62  103.67  <
  8  4  -18  -1  306.77  209.05  88.59  <
  9  4  18  -2  92.10  90.38  92.27  <
  9  4  -18  -2  98.26  175.12  80.93  <
  0  5  18  -2  30.69  30.13  97.91  <
  0  5  -18  -2  34.86  82.85  86.61  <
  0  5  18  -1  1408.61  1302.40  222.58  o
  0  5  -18  -1  1376.82  1181.75  175.65  o
  1  5  18  -2  9.82  -47.07  77.19  <
  1  5  -18  -2  9.99  -20.71  60.25  <
  1  5  18  -1  62.22  47.07  80.97  <
  1  5  -18  -1  55.36  64.02  73.43  <
  2  5  18  -2  10.79  64.02  77.19  <
  2  5  -18  -2  11.64  79.08  67.77  <
  2  5  18  -1  42.73  48.96  75.32  <
  2  5  -18  -1  37.66  16.95  67.79  <
  3  5  18  -2  35.35  84.73  75.31  <
  3  5  -18  -2  31.24  16.95  64.02  <
  3  5  18  -1  101.72  139.34  75.30  <
  3  5  -18  -1  103.39  97.92  71.56  <
  4  5  18  -2  42.13  88.50  65.89  <
  4  5  -18  -2  41.45  -26.36  69.67  <
  4  5  18  -1  323.75  248.60  81.05  o
  4  5  -18  -1  343.84  293.80  97.98  o
  5  5  18  -2  39.44  120.51  69.64  <
  5  5  -18  -2  41.14  -88.50  58.34  <
  6  5  18  -2  4.40  -5.65  62.14  <
  6  5  -18  -2  4.45  -60.25  67.77  <
  1  0  19  1  579.85  668.77  95.92  o
  1  0  -19  1  589.53  561.39  90.47  o
  1  0  19  2  36.87  24.48  50.84  <
  1  0  -19  2  38.28  11.30  48.96  <
  2  0  19  0  9394.61  11475.80  450.11  o
  2  0  -19  0  9620.04  11487.50  453.42  o
  2  0  19  1  1746.94  1995.14  132.94  o
  2  0  -19  1  1724.33  1989.44  130.98  o
  2  0  19  2  66.48  77.20  56.49  <
  2  0  -19  2  74.66  35.78  54.62  <
  3  0  19  1  558.07  538.77  86.69  o
  3  0  -19  1  554.67  557.60  94.18  o
  3  0  19  2  53.24  124.28  62.11  <
  3  0  -19  2  52.99  60.26  54.60  <
  4  0  19  0  22.35  18.83  75.32  <
  4  0  -19  0  2.70  22.59  69.67  <
  4  0  19  1  214.88  195.86  69.69  <
  4  0  -19  1  213.88  210.92  69.68  o
  4  0  19  2  39.62  64.02  52.72  <
  4  0  -19  2  41.35  0.00  52.73  <
  5  0  19  1  757.85  842.18  111.00  o
  5  0  -19  1  760.42  787.55  103.57  o
  5  0  19  2  38.28  22.60  52.72  <
  5  0  -19  2  36.68  26.36  54.61  <
  6  0  19  0  7379.24  7434.96  380.46  o
  6  0  -19  0  7348.06  7864.76  372.22  o
  6  0  19  1  773.11  1068.27  121.84  o
  6  0  -19  1  791.36  943.94  112.72  o
  6  0  19  2  55.91  16.95  58.38  <
  6  0  -19  2  52.22  26.36  58.38  <
  7  0  19  1  384.95  329.61  105.52  o
  7  0  -19  1  405.88  421.90  103.57  o
  7  0  19  2  48.41  50.84  64.02  <
  7  0  -19  2  51.28  129.92  69.64  <
  8  0  19  0  3377.30  2255.98  330.87  o
  8  0  -19  0  3360.50  3192.31  366.64  o
  8  0  19  1  607.69  568.90  122.50  o
  8  0  -19  1  612.20  518.04  116.91  o
  8  0  19  2  19.37  45.19  69.66  <
  8  0  -19  2  15.77  35.78  75.31  <
  9  0  19  1  320.37  246.72  116.81  <
  9  0  -19  1  317.61  327.70  107.34  o
  9  0  19  2  22.46  122.39  77.17  <
  9  0  -19  2  24.72  -84.73  69.65  <
  10  0  19  0  6857.82  6067.29  539.94  o
  10  0  -19  0  6893.50  6936.12  387.77  o
  10  0  19  1  814.21  665.06  173.49  o
  10  0  -19  1  807.05  591.58  130.29  o
  10  0  19  2  73.11  90.38  88.50  <
  10  0  -19  2  82.93  82.85  86.62  <
  11  0  19  1  190.30  118.64  107.36  <
  11  0  -19  1  178.85  248.57  105.42  <
  11  0  19  2  32.29  -33.89  84.73  <
  11  0  -19  2  32.28  88.50  101.67  <
  12  0  19  0  479.10  544.34  220.33  <
  12  0  -19  0  466.75  325.85  145.13  <
  12  0  19  1  247.30  180.79  116.79  <
  12  0  -19  1  235.59  186.44  111.13  <
  12  0  19  2  128.06  -80.97  88.50  <
  12  0  -19  2  129.83  92.27  129.94  <
  1  1  19  -2  1.70  -22.59  47.07  <
  1  1  -19  -2  1.26  20.71  48.95  <
  1  1  19  -1  364.21  431.32  80.90  o
  1  1  -19  -1  319.35  327.71  73.44  o
  1  1  19  0  83.71  79.09  54.61  <
  1  1  -19  0  98.44  -30.13  48.97  <
  1  1  19  1  17.08  -18.83  45.19  <
  1  1  -19  1  14.33  50.84  54.60  <
  1  1  19  2  65.63  41.43  47.08  <
  1  1  -19  2  67.03  22.60  54.61  <
  2  1  19  -2  118.46  158.18  65.88  <
  2  1  -19  -2  116.00  56.49  58.40  <
  2  1  19  -1  1301.17  1775.69  126.57  o
  2  1  -19  -1  1280.19  1649.36  127.00  o
  2  1  19  0  23104.10  24582.60  489.88  o
  2  1  -19  0  23107.70  24077.60  516.34  o
  2  1  19  1  1700.56  1761.16  118.56  o
  2  1  -19  1  1705.14  1734.77  139.44  o
  2  1  19  2  6.45  -16.95  47.07  <
  2  1  -19  2  6.17  -1.88  52.72  <
  3  1  19  -2  42.63  -16.95  47.07  <
  3  1  -19  -2  42.15  60.25  56.48  <
  3  1  19  -1  522.72  534.98  92.28  o
  3  1  -19  -1  542.61  708.30  99.55  o
  3  1  19  0  29.57  -9.41  47.07  <
  3  1  -19  0  26.99  24.48  52.72  <
  3  1  19  1  6.29  16.95  45.19  <
  3  1  -19  1  6.45  62.14  52.71  <
  3  1  19  2  118.70  71.56  58.39  <
  3  1  -19  2  119.23  11.30  56.52  <
  4  1  19  -2  6.19  -1.88  50.84  <
  4  1  -19  -2  6.65  33.89  54.60  <
  4  1  19  -1  21.33  18.83  54.60  <
  4  1  -19  -1  19.77  60.25  54.60  <
  4  1  19  0  2269.06  2186.43  147.48  o
  4  1  -19  0  2313.52  2322.34  147.11  o
  4  1  19  1  1.73  -28.24  56.48  <
  4  1  -19  1  0.23  -7.53  54.60  <
  4  1  19  2  3.24  -48.96  50.83  <
  4  1  -19  2  3.71  -11.30  54.60  <
  5  1  19  -2  9.99  3.77  54.60  <
  5  1  -19  -2  9.64  -9.41  54.60  <
  5  1  19  -1  594.31  606.59  99.82  o
  5  1  -19  -1  605.73  617.90  99.82  o
  5  1  19  0  117.15  128.05  69.67  <
  5  1  -19  0  88.45  28.25  52.74  <
  5  1  19  1  101.02  32.01  60.27  <
  5  1  -19  1  98.90  177.01  71.51  <
  5  1  19  2  30.96  47.07  58.37  <
  5  1  -19  2  34.66  88.50  67.77  <
  6  1  19  -2  63.89  48.96  58.38  <
  6  1  -19  -2  64.41  75.32  64.02  <
  6  1  19  -1  788.94  759.29  131.93  o
  6  1  -19  -1  780.00  849.72  114.79  o
  6  1  19  0  16483.40  15668.00  431.67  o
  6  1  -19  0  16408.10  16172.60  414.56  o
  6  1  19  1  1161.62  823.59  115.69  o
  6  1  -19  1  1147.95  1064.81  124.58  o
  6  1  19  2  1.47  -5.65  58.37  <
  6  1  -19  2  1.42  -24.48  50.84  <
  7  1  19  -2  26.18  75.32  69.66  <
  7  1  -19  -2  33.37  -65.90  60.24  <
  7  1  19  -1  469.75  357.88  90.54  o
  7  1  -19  -1  479.35  570.73  97.81  o
  7  1  19  0  27.36  -39.54  60.25  <
  7  1  -19  0  33.92  60.25  62.13  <
  7  1  19  1  37.42  101.68  65.88  <
  7  1  -19  1  38.97  50.84  69.67  <
  7  1  19  2  124.59  71.56  67.81  <
  7  1  -19  2  128.29  92.27  71.57  <
  8  1  19  -2  29.03  -58.37  77.19  <
  8  1  -19  -2  27.46  33.89  96.03  <
  8  1  19  -1  26.00  -39.54  65.90  <
  8  1  -19  -1  24.77  -52.72  71.54  <
  8  1  19  0  89.70  116.75  75.31  <
  8  1  -19  0  70.48  88.50  71.55  <
  8  1  19  1  555.25  531.20  101.75  o
  8  1  -19  1  558.39  470.92  96.19  o
  8  1  19  2  37.87  -50.84  58.36  <
  8  1  -19  2  37.90  -11.30  65.90  <
  9  1  19  -2  53.79  18.83  90.39  <
  9  1  -19  -2  51.66  5.65  75.32  <
  9  1  19  -1  811.62  540.72  122.83  o
  9  1  -19  -1  796.48  621.73  126.48  o
  9  1  19  0  228.94  90.39  75.40  <
  9  1  -19  0  237.22  273.07  99.79  <
  9  1  19  1  22.15  69.67  73.42  <
  9  1  -19  1  19.37  111.09  90.36  <
  9  1  19  2  27.19  118.62  79.06  <
  9  1  -19  2  30.96  94.15  77.18  <
  10  1  19  -2  58.40  62.14  109.21  <
  10  1  -19  -2  56.56  -22.60  77.20  <
  10  1  19  -1  385.12  197.76  98.07  <
  10  1  -19  -1  375.33  484.04  112.89  o
  10  1  19  0  20339.90  19590.40  597.20  o
  10  1  -19  0  20393.90  19816.60  715.26  o
  10  1  19  1  629.53  730.90  118.52  o
  10  1  -19  1  633.45  502.96  124.48  o
  10  1  19  2  0.04  13.18  73.43  <
  10  1  -19  2  0.03  -20.71  79.08  <
  11  1  19  -2  70.65  -52.72  103.56  <
  11  1  -19  -2  71.67  71.55  97.92  <
  11  1  19  -1  508.79  666.79  141.09  o
  11  1  -19  -1  528.42  418.16  120.66  o
  11  1  19  0  87.26  86.62  96.03  <
  11  1  -19  0  86.30  -50.84  90.38  <
  11  1  19  1  105.91  239.15  111.04  <
  11  1  -19  1  108.58  224.08  133.65  <
  11  1  19  2  90.97  -7.53  80.98  <
  11  1  -19  2  93.16  105.45  114.86  <
  12  1  19  -2  9.79  52.72  114.85  <
  12  1  -19  -2  4.83  43.31  84.73  <
  12  1  19  -1  107.88  107.33  101.68  <
  12  1  -19  -1  102.27  197.72  114.83  <
  1  2  19  -2  100.39  141.23  56.47  <
  1  2  -19  -2  105.64  141.23  62.12  <
  1  2  19  -1  1365.03  1278.07  105.85  o
  1  2  -19  -1  1347.55  1193.23  124.82  o
  1  2  19  0  2276.60  2163.76  126.92  o
  1  2  -19  0  2298.70  2212.84  138.09  o
  1  2  19  1  98.82  116.75  60.25  <
  1  2  -19  1  108.23  79.09  56.50  <
  1  2  19  2  91.24  -52.72  48.95  <
  1  2  -19  2  89.75  -5.65  50.85  <
  2  2  19  -2  182.39  210.92  62.12  o
  2  2  -19  -2  191.30  143.12  62.18  <
  2  2  19  -1  74.11  -7.53  43.32  <
  2  2  -19  -1  81.58  86.62  60.25  <
  2  2  19  0  8508.45  8067.94  248.51  o
  2  2  -19  0  8634.08  8156.00  280.66  o
  2  2  19  1  3381.83  3428.66  167.78  o
  2  2  -19  1  3370.77  2849.01  157.51  o
  2  2  19  2  41.41  -105.44  50.80  <
  2  2  -19  2  42.62  -77.20  45.16  <
  3  2  19  -2  134.07  99.80  54.63  <
  3  2  -19  -2  134.16  146.88  62.13  <
  3  2  19  -1  1050.88  1155.22  116.57  o
  3  2  -19  -1  1050.64  1162.76  116.55  o
  3  2  19  0  4393.80  4259.27  191.66  o
  3  2  -19  0  4593.20  4042.62  182.97  o
  3  2  19  1  95.50  50.84  58.39  <
  3  2  -19  1  108.73  116.75  60.25  <
  3  2  19  2  67.59  37.66  54.61  <
  3  2  -19  2  68.76  41.43  65.91  <
  4  2  19  -2  28.33  -32.01  52.72  <
  4  2  -19  -2  27.33  -30.13  50.84  <
  4  2  19  -1  132.34  15.06  54.64  <
  4  2  -19  -1  128.67  56.49  52.76  <
  4  2  19  0  22.49  30.13  56.49  <
  4  2  -19  0  9.07  -13.18  52.72  <
  4  2  19  1  214.80  327.68  80.87  o
  4  2  -19  1  211.57  359.69  80.83  o
  4  2  19  2  26.31  18.83  56.49  <
  4  2  -19  2  26.43  1.88  58.37  <
  5  2  19  -2  89.81  109.21  67.78  <
  5  2  -19  -2  94.92  154.41  63.99  <
  5  2  19  -1  1539.82  1432.78  134.16  o
  5  2  -19  -1  1507.57  1564.70  133.67  o
  5  2  19  0  3277.00  3135.62  172.49  o
  5  2  -19  0  3127.58  3144.68  171.68  o
  5  2  19  1  169.13  178.90  69.67  <
  5  2  -19  1  163.52  263.64  82.78  o
  5  2  19  2  44.96  43.31  58.37  <
  5  2  -19  2  46.23  58.37  64.02  <
  6  2  19  -2  152.22  94.16  65.94  <
  6  2  -19  -2  149.83  101.69  65.93  <
  6  2  19  -1  251.18  195.86  77.25  <
  6  2  -19  -1  253.40  195.86  71.61  <
  6  2  19  0  5692.17  5843.96  244.91  o
  6  2  -19  0  5664.72  5560.16  235.17  o
  6  2  19  1  2079.78  2300.79  150.00  o
  6  2  -19  1  2159.17  2465.01  145.79  o
  6  2  19  2  106.36  0.00  62.16  <
  6  2  -19  2  106.83  86.62  67.80  <
  7  2  19  -2  96.35  33.89  58.39  <
  7  2  -19  -2  98.91  86.62  69.68  <
  7  2  19  -1  961.87  912.00  124.46  o
  7  2  -19  -1  941.53  910.10  120.66  o
  7  2  19  0  2440.08  2256.14  162.93  o
  7  2  -19  0  2248.26  2395.38  154.07  o
  7  2  19  1  93.36  94.15  73.44  <
  7  2  -19  1  104.42  50.84  67.80  <
  7  2  19  2  81.34  5.65  67.80  <
  7  2  -19  2  85.48  37.66  67.80  <
  8  2  19  -2  1.74  7.53  69.67  <
  8  2  -19  -2  3.40  13.18  65.90  <
  8  2  19  -1  244.07  173.26  79.14  <
  8  2  -19  -1  252.40  167.61  77.27  <
  8  2  19  0  1473.44  1327.02  147.39  o
  8  2  -19  0  1485.99  1400.55  137.84  o
  8  2  19  1  152.85  118.64  77.22  <
  8  2  -19  1  175.34  80.97  64.07  <
  8  2  19  2  13.36  -50.84  73.43  <
  8  2  -19  2  9.71  -41.42  64.01  <
  9  2  19  -2  76.29  5.65  69.68  <
  9  2  -19  -2  80.98  45.19  82.86  <
  9  2  19  -1  586.76  634.81  114.84  o
  9  2  -19  -1  628.15  380.52  109.54  o
  9  2  19  0  2051.53  2183.68  167.38  o
  9  2  -19  0  2111.71  1953.70  157.06  o
  9  2  19  1  40.57  60.25  79.08  <
  9  2  -19  1  47.77  52.72  71.55  <
  9  2  19  2  27.82  26.36  73.43  <
  9  2  -19  2  29.08  28.24  75.32  <
  10  2  19  -2  112.10  116.75  80.97  <
  10  2  -19  -2  121.98  152.53  96.02  <
  10  2  19  -1  105.04  128.05  86.61  <
  10  2  -19  -1  115.23  163.82  99.78  <
  10  2  19  0  4939.92  5687.72  258.49  o
  10  2  -19  0  4927.07  5375.89  288.84  o
  10  2  19  1  1999.44  2192.93  180.41  o
  10  2  -19  1  1954.91  1742.22  196.62  o
  11  2  19  -2  28.86  3.77  90.38  <
  11  2  -19  -2  24.33  103.56  96.01  <
  11  2  19  -1  158.38  250.45  111.05  <
  11  2  -19  -1  165.26  261.75  135.54  <
  1  3  19  -2  57.63  5.65  48.96  <
  1  3  -19  -2  57.52  -32.01  48.96  <
  1  3  19  -1  116.75  28.25  62.16  <
  1  3  -19  -1  116.16  79.09  56.51  <
  1  3  19  0  222.19  88.51  65.98  <
  1  3  -19  0  138.86  109.22  60.27  <
  1  3  19  1  1057.89  831.02  122.93  o
  1  3  -19  1  1037.99  1026.98  111.21  o
  1  3  19  2  20.21  56.49  77.19  <
  1  3  -19  2  18.48  -11.30  60.25  <
  2  3  19  -2  60.41  67.79  60.25  <
  2  3  -19  -2  57.68  18.83  52.73  <
  2  3  19  -1  267.64  263.66  77.22  o
  2  3  -19  -1  258.14  139.36  58.48  <
  2  3  19  0  4169.26  3881.87  190.51  o
  2  3  -19  0  4208.52  3995.33  188.25  o
  2  3  19  1  1004.58  1158.86  127.78  o
  2  3  -19  1  1024.22  851.73  109.67  o
  2  3  19  2  36.76  128.04  77.17  <
  2  3  -19  2  36.83  43.31  69.67  <
  3  3  19  -2  56.85  5.65  58.38  <
  3  3  -19  -2  58.66  60.26  58.37  <
  3  3  19  -1  18.24  41.42  58.37  <
  3  3  -19  -1  19.09  11.30  54.61  <
  3  3  19  0  532.71  689.42  103.34  o
  3  3  -19  0  599.64  346.61  83.24  o
  3  3  19  1  748.12  538.81  94.56  o
  3  3  -19  1  777.91  648.09  96.33  o
  3  3  19  2  89.84  77.20  73.44  <
  3  3  -19  2  90.84  126.16  75.31  <
  4  3  19  -2  2.66  -37.66  54.60  <
  4  3  -19  -2  2.23  -62.14  54.59  <
  4  3  19  -1  44.25  -7.53  56.49  <
  4  3  -19  -1  49.26  -3.77  64.02  <
  4  3  19  0  2263.07  2342.59  165.68  o
  4  3  -19  0  2260.87  2355.79  159.95  o
  4  3  19  1  193.14  227.86  75.30  o
  4  3  -19  1  191.71  133.70  79.12  <
  4  3  19  2  4.68  -7.53  54.60  <
  4  3  -19  2  4.01  -18.83  71.55  <
  5  3  19  -2  78.40  -7.53  52.73  <
  5  3  -19  -2  80.35  92.27  67.78  <
  5  3  19  -1  426.80  322.08  79.23  o
  5  3  -19  -1  410.91  414.37  90.40  o
  5  3  19  0  1716.06  2011.64  144.13  o
  5  3  -19  0  1812.38  1819.47  152.70  o
  5  3  19  1  897.45  915.69  120.55  o
  5  3  -19  1  905.35  731.05  117.13  o
  5  3  19  2  24.70  -1.88  58.37  <
  5  3  -19  2  29.14  -39.54  65.90  <
  6  3  19  -2  45.48  80.97  65.89  <
  6  3  -19  -2  47.65  26.36  56.49  <
  6  3  19  -1  52.90  24.48  60.26  <
  6  3  -19  -1  49.65  73.44  62.13  <
  6  3  19  0  2336.11  2297.35  160.47  o
  6  3  -19  0  2324.92  2044.58  153.82  o
  6  3  19  1  548.26  376.73  90.63  o
  6  3  -19  1  541.21  533.07  99.84  o
  6  3  19  2  36.20  37.66  71.55  <
  6  3  -19  2  36.35  50.84  75.32  <
  7  3  19  -2  56.74  35.78  67.79  <
  7  3  -19  -2  59.18  116.74  67.76  <
  7  3  19  -1  306.94  450.11  95.89  o
  7  3  -19  -1  310.95  303.21  82.87  o
  7  3  19  0  392.45  348.43  94.22  o
  7  3  -19  0  362.40  263.67  82.96  o
  7  3  19  1  836.08  764.91  122.58  o
  7  3  -19  1  820.70  689.54  111.39  o
  7  3  19  2  51.75  39.54  80.97  <
  7  3  -19  2  52.49  47.07  77.20  <
  8  3  19  -2  22.61  56.49  69.66  <
  8  3  -19  -2  24.08  -35.78  62.13  <
  8  3  19  -1  80.81  -28.25  67.79  <
  8  3  -19  -1  62.96  73.44  67.78  <
  8  3  19  0  78.67  116.75  82.84  <
  8  3  -19  0  89.01  122.40  79.07  <
  8  3  19  1  95.71  56.49  82.86  <
  8  3  -19  1  108.12  137.46  80.96  <
  9  3  19  -2  120.71  129.93  79.08  <
  9  3  -19  -2  115.88  92.27  71.56  <
  9  3  19  -1  628.64  625.40  114.91  o
  9  3  -19  -1  568.47  489.75  96.18  o
  9  3  19  0  503.66  371.06  101.86  o
  9  3  -19  0  363.63  467.08  105.36  o
  10  3  19  -2  23.55  39.54  77.20  <
  10  3  -19  -2  21.50  39.54  109.21  <
  10  3  19  -1  168.94  96.04  84.77  <
  10  3  -19  -1  165.60  88.51  88.53  <
  1  4  19  -2  100.77  39.54  64.04  <
  1  4  -19  -2  106.26  129.93  64.01  <
  1  4  19  -1  1210.84  1059.14  139.78  o
  1  4  -19  -1  1136.99  991.24  109.67  o
  1  4  19  0  1692.07  2036.04  176.21  o
  1  4  -19  0  1549.84  1817.17  146.19  o
  1  4  19  1  31.52  41.42  84.73  <
  1  4  -19  1  39.09  65.90  71.55  <
  2  4  19  -2  94.04  158.17  73.41  <
  2  4  -19  -2  99.33  -30.13  50.85  <
  2  4  19  -1  931.37  1017.47  133.61  o
  2  4  -19  -1  918.40  1141.81  125.74  o
  2  4  19  0  4696.18  4982.23  242.19  o
  2  4  -19  0  4718.37  4908.62  233.23  o
  2  4  19  1  814.87  678.23  122.67  o
  2  4  -19  1  799.45  740.40  115.03  o
  3  4  19  -2  134.30  131.82  67.79  <
  3  4  -19  -2  131.48  120.52  67.80  <
  3  4  19  -1  1032.96  983.62  118.82  o
  3  4  -19  -1  1028.40  1158.86  125.94  o
  3  4  19  0  4013.92  4184.67  206.82  o
  3  4  -19  0  4251.45  3851.09  196.71  o
  3  4  19  1  4.23  22.59  73.43  <
  3  4  -19  1  5.83  -9.41  71.55  <
  4  4  19  -2  3.86  -11.30  58.37  <
  4  4  -19  -2  3.62  45.19  64.01  <
  4  4  19  -1  17.47  24.48  64.02  <
  4  4  -19  -1  17.10  0.00  67.79  <
  4  4  19  0  311.60  263.66  73.50  o
  4  4  -19  0  294.84  190.21  88.59  <
  5  4  19  -2  156.52  209.02  77.17  <
  5  4  -19  -2  153.21  128.05  75.34  <
  5  4  19  -1  1208.90  1224.96  137.53  o
  5  4  -19  -1  1233.89  866.91  125.16  o
  5  4  19  0  4877.87  4663.23  222.29  o
  5  4  -19  0  5045.84  4433.25  231.94  o
  6  4  19  -2  103.77  13.18  62.16  <
  6  4  -19  -2  104.38  58.37  71.57  <
  6  4  19  -1  1666.03  1658.94  150.83  o
  6  4  -19  -1  1702.72  1536.44  155.04  o
  6  4  19  0  2214.20  2415.78  178.45  o
  6  4  -19  0  2202.16  2621.32  219.38  o
  7  4  19  -2  116.63  150.64  84.72  <
  7  4  -19  -2  119.69  111.10  73.44  <
  7  4  19  -1  1054.67  900.70  132.20  o
  7  4  -19  -1  1062.94  979.85  124.54  o
  8  4  19  -2  15.05  73.43  77.19  <
  8  4  -19  -2  18.55  -16.95  65.90  <
  1  5  19  -2  198.35  131.82  82.89  <
  1  5  -19  -2  198.20  193.96  80.98  <
  1  5  19  -1  610.63  395.58  164.05  <
  1  5  -19  -1  608.35  493.53  165.86  <
  2  5  19  -2  96.10  22.60  75.33  <
  2  5  -19  -2  108.27  -73.44  62.13  <
  3  5  19  -2  174.41  48.96  71.60  <
  3  5  -19  -2  173.89  180.78  84.74  <
  4  5  19  -2  8.37  -28.24  65.90  <
  4  5  -19  -2  8.18  15.06  75.32  <
  0  0  20  0  687.31  906.19  223.98  o
  0  0  -20  0  657.32  742.27  205.27  o
  0  0  20  1  293.62  367.25  107.29  o
  0  0  -20  1  296.25  320.17  112.98  <
  0  0  20  2  85.96  129.93  94.14  <
  0  0  -20  2  85.40  48.96  77.21  <
  1  0  20  1  972.84  1087.31  120.34  o
  1  0  -20  1  999.84  1066.61  122.34  o
  1  0  20  2  109.69  97.92  58.38  <
  1  0  -20  2  106.85  0.00  50.86  <
  2  0  20  0  184.94  199.62  103.57  <
  2  0  -20  0  184.99  229.75  107.32  <
  2  0  20  1  0.46  22.59  52.72  <
  2  0  -20  1  1.58  56.49  54.59  <
  2  0  20  2  23.06  -3.77  52.72  <
  2  0  -20  2  24.02  -15.06  54.60  <
  3  0  20  1  981.20  979.89  116.84  o
  3  0  -20  1  943.15  1134.38  122.04  o
  3  0  20  2  90.64  64.02  62.15  <
  3  0  -20  2  85.18  94.15  62.14  <
  4  0  20  0  697.56  847.78  159.94  o
  4  0  -20  0  717.03  781.85  150.63  o
  4  0  20  1  110.67  65.91  62.16  <
  4  0  -20  1  102.01  11.30  60.27  <
  4  0  20  2  76.12  112.98  64.01  <
  4  0  -20  2  75.04  33.89  58.38  <
  5  0  20  1  806.74  776.25  109.34  o
  5  0  -20  1  792.07  734.79  105.62  o
  5  0  20  2  111.46  37.66  65.93  <
  5  0  -20  2  113.34  112.98  64.02  <
  6  0  20  0  7250.00  7457.12  381.45  o
  6  0  -20  0  7261.92  7381.45  370.52  o
  6  0  20  1  283.67  237.30  92.32  <
  6  0  -20  1  289.96  237.30  77.26  o
  6  0  20  2  4.44  47.07  71.54  <
  6  0  -20  2  5.23  -58.37  67.77  <
  7  0  20  1  635.05  659.33  131.84  o
  7  0  -20  1  646.48  706.43  120.47  o
  7  0  20  2  37.50  39.54  82.85  <
  7  0  -20  2  36.04  11.30  73.44  <
  8  0  20  0  186.20  11.30  122.43  <
  8  0  -20  0  171.04  180.78  167.60  <
  8  0  20  1  20.57  0.00  90.38  <
  8  0  -20  1  21.17  15.06  86.61  <
  8  0  20  2  37.59  54.61  80.96  <
  8  0  -20  2  41.77  139.34  109.18  <
  9  0  20  1  671.27  719.62  169.49  o
  9  0  -20  1  635.56  830.74  171.19  o
  9  0  20  2  76.82  86.62  118.63  <
  9  0  -20  2  76.90  -22.60  73.44  <
  10  0  20  0  3162.99  3336.59  411.04  o
  10  0  20  1  328.43  280.62  146.93  <
  10  0  -20  1  316.69  474.60  163.74  <
  10  0  20  2  45.32  -52.72  94.14  <
  10  0  -20  2  42.75  -15.06  84.73  <
  11  0  20  1  798.15  536.93  154.77  o
  11  0  -20  1  811.87  717.79  152.73  o
  11  0  20  2  59.22  -39.54  103.56  <
  11  0  -20  2  60.18  80.97  96.03  <
  0  1  20  -2  49.40  -13.18  69.67  <
  0  1  -20  -2  43.82  -18.83  75.32  <
  0  1  20  -1  2269.11  2624.07  217.74  o
  0  1  -20  -1  2254.03  2844.75  218.82  o
  0  1  20  0  23194.00  25757.70  772.77  o
  0  1  -20  0  23287.90  25316.30  767.79  o
  0  1  20  1  7045.59  7548.52  341.78  o
  0  1  -20  1  7052.81  7478.49  338.43  o
  0  1  20  2  73.62  71.55  71.55  <
  0  1  -20  2  65.23  11.30  75.32  <
  1  1  20  -2  15.29  -16.95  50.84  <
  1  1  -20  -2  14.00  105.44  62.11  <
  1  1  20  -1  11.11  26.36  50.84  <
  1  1  -20  -1  15.43  -26.36  50.84  <
  1  1  20  0  251.51  491.54  88.22  o
  1  1  -20  0  286.80  141.25  64.15  <
  1  1  20  1  117.47  116.75  64.02  <
  1  1  -20  1  113.75  99.80  64.03  <
  1  1  20  2  16.32  41.42  47.07  <
  1  1  -20  2  17.13  -60.25  50.82  <
  2  1  20  -2  7.11  -1.88  52.72  <
  2  1  -20  -2  7.12  11.30  52.72  <
  2  1  20  -1  68.82  112.98  62.12  <
  2  1  -20  -1  67.85  0.00  54.61  <
  2  1  20  0  307.99  325.82  77.20  o
  2  1  -20  0  287.95  199.63  71.64  <
  2  1  20  1  10.59  16.95  54.60  <
  2  1  -20  1  9.93  22.59  52.72  <
  2  1  20  2  7.56  -11.30  47.07  <
  2  1  -20  2  6.88  -9.41  56.49  <
  3  1  20  -2  2.94  20.71  54.60  <
  3  1  -20  -2  3.47  -30.13  48.95  <
  3  1  20  -1  92.02  94.15  60.26  <
  3  1  -20  -1  93.39  54.61  54.62  <
  3  1  20  0  99.58  92.27  62.14  <
  3  1  -20  0  99.91  56.49  62.15  <
  3  1  20  1  170.88  152.54  65.92  <
  3  1  -20  1  163.14  229.74  77.16  <
  3  1  20  2  0.98  5.65  56.49  <
  3  1  -20  2  1.67  -54.60  54.59  <
  4  1  20  -2  45.01  60.25  56.48  <
  4  1  -20  -2  40.96  26.36  58.37  <
  4  1  20  -1  2111.09  2110.56  143.35  o
  4  1  -20  -1  2123.40  2250.16  146.61  o
  4  1  20  0  13559.90  14374.70  384.21  o
  4  1  -20  0  13399.00  13664.80  376.18  o
  4  1  20  1  5566.26  6280.78  229.55  o
  4  1  -20  1  5542.79  6208.80  226.07  o
  4  1  20  2  52.65  39.54  64.02  <
  4  1  -20  2  47.77  28.24  56.49  <
  5  1  20  -2  23.83  37.66  60.25  <
  5  1  -20  -2  25.05  24.48  62.14  <
  5  1  20  -1  52.24  -1.88  58.38  <
  5  1  -20  -1  54.57  -11.30  50.84  <
  5  1  20  0  288.12  107.35  79.20  <
  5  1  -20  0  253.86  173.26  71.62  <
  5  1  20  1  156.34  184.55  77.19  <
  5  1  -20  1  150.23  154.41  84.74  <
  5  1  20  2  36.48  24.48  65.90  <
  5  1  -20  2  38.16  64.02  64.01  <
  6  1  20  -2  43.64  30.13  56.49  <
  6  1  -20  -2  41.95  0.00  58.37  <
  6  1  20  -1  32.20  48.96  77.20  <
  6  1  -20  -1  35.21  35.78  69.67  <
  6  1  20  0  44.00  114.86  86.60  <
  6  1  -20  0  58.99  -28.24  71.55  <
  6  1  20  1  94.20  26.36  67.80  <
  6  1  -20  1  95.73  33.89  60.27  <
  6  1  20  2  26.15  -18.83  65.90  <
  6  1  -20  2  24.98  -15.06  60.25  <
  7  1  20  -2  2.30  15.06  75.32  <
  7  1  -20  -2  1.27  -30.13  77.20  <
  7  1  20  -1  143.84  97.92  86.64  <
  7  1  -20  -1  153.74  64.03  77.24  <
  7  1  20  0  156.19  75.32  79.12  <
  7  1  -20  0  148.97  229.74  95.99  <
  7  1  20  1  184.13  161.95  77.22  <
  7  1  -20  1  167.25  218.44  80.94  <
  7  1  20  2  9.69  -11.30  69.67  <
  7  1  -20  2  9.10  79.08  69.65  <
  8  1  20  -2  17.61  -22.59  88.50  <
  8  1  -20  -2  15.09  -32.01  88.49  <
  8  1  20  -1  749.26  540.69  120.85  o
  8  1  -20  -1  758.56  508.67  147.22  o
  8  1  20  0  14164.70  13700.50  418.93  o
  8  1  -20  0  14247.80  13513.00  456.94  o
  8  1  20  1  2404.74  2885.97  182.95  o
  8  1  -20  1  2420.53  2523.84  167.47  o
  8  1  20  2  18.59  -22.59  69.67  <
  8  1  -20  2  16.15  -62.14  62.12  <
  9  1  20  -2  76.17  18.83  101.69  <
  9  1  -20  -2  75.64  158.17  112.95  <
  9  1  20  -1  43.01  146.87  112.95  <
  9  1  -20  -1  42.05  48.96  105.44  <
  9  1  20  0  86.05  143.11  86.60  <
  9  1  -20  0  71.52  15.06  82.86  <
  9  1  20  1  126.91  310.70  95.91  o
  9  1  -20  1  135.49  220.32  95.99  <
  9  1  20  2  70.86  62.14  79.09  <
  9  1  -20  2  75.98  75.32  82.85  <
  10  1  20  -2  5.21  60.25  120.50  <
  10  1  -20  -2  2.99  26.36  99.79  <
  10  1  20  -1  96.48  33.89  107.34  <
  10  1  -20  -1  93.37  222.20  109.16  <
  10  1  20  0  87.12  124.28  103.56  <
  10  1  -20  0  95.37  84.74  94.15  <
  10  1  20  1  12.07  84.73  86.60  <
  10  1  -20  1  9.49  67.78  88.49  <
  10  1  20  2  10.03  30.13  75.31  <
  10  1  -20  2  11.12  137.45  103.53  <
  11  1  20  -2  66.17  143.11  122.37  <
  11  1  -20  -2  70.69  3.77  109.22  <
  11  1  20  -1  354.80  337.12  150.68  <
  11  1  -20  -1  361.32  542.41  133.54  o
  0  2  20  -2  210.19  160.07  88.54  <
  0  2  -20  -2  216.65  32.01  81.04  <
  0  2  20  -1  621.92  519.94  113.16  o
  0  2  -20  -1  606.99  736.57  144.89  o
  0  2  20  0  5004.87  4204.27  247.75  o
  0  2  -20  0  4841.86  4848.28  302.40  o
  0  2  20  1  1141.70  1189.16  161.98  o
  0  2  -20  1  1162.41  1070.45  190.49  o
  0  2  20  2  50.22  -54.61  80.96  <
  0  2  -20  2  57.87  9.41  75.32  <
  1  2  20  -2  64.51  9.41  54.61  <
  1  2  -20  -2  67.47  126.16  64.00  <
  1  2  20  -1  1723.70  1827.07  122.15  o
  1  2  -20  -1  1738.30  1655.51  136.03  o
  1  2  20  0  2908.44  2755.39  146.10  o
  1  2  -20  0  2910.02  2634.61  163.53  o
  1  2  20  1  3.05  -26.36  56.48  <
  1  2  -20  1  2.45  -5.65  60.25  <
  1  2  20  2  149.10  48.96  62.18  <
  1  2  -20  2  148.45  33.90  62.18  <
  2  2  20  -2  33.06  37.66  56.49  <
  2  2  -20  -2  32.63  32.01  58.37  <
  2  2  20  -1  8.45  -18.83  48.95  <
  2  2  -20  -1  8.81  30.13  56.48  <
  2  2  20  0  929.40  911.99  111.21  o
  2  2  -20  0  923.77  910.10  118.74  o
  2  2  20  1  8.74  0.00  58.37  <
  2  2  -20  1  11.63  9.41  58.37  <
  2  2  20  2  30.63  -18.83  60.25  <
  2  2  -20  2  32.17  47.07  64.02  <
  3  2  20  -2  87.82  75.32  60.26  <
  3  2  -20  -2  89.09  50.84  56.50  <
  3  2  20  -1  1749.12  1974.14  146.29  o
  3  2  -20  -1  1746.12  1900.60  148.44  o
  3  2  20  0  2812.89  2862.66  163.94  o
  3  2  -20  0  2749.67  2666.27  155.12  o
  3  2  20  1  19.71  -22.59  58.37  <
  3  2  -20  1  19.54  18.83  62.14  <
  3  2  20  2  75.99  88.50  65.90  <
  3  2  -20  2  69.28  -16.95  64.03  <
  4  2  20  -2  172.07  290.01  78.99  o
  4  2  -20  -2  169.19  158.18  71.57  <
  4  2  20  -1  760.64  806.36  114.84  o
  4  2  -20  -1  800.10  612.33  100.19  o
  4  2  20  0  1185.95  1238.20  131.79  o
  4  2  -20  0  1272.97  1113.89  128.55  o
  4  2  20  1  564.67  678.13  103.42  o
  4  2  -20  1  558.65  384.27  88.77  o
  4  2  20  2  37.08  -13.18  64.02  <
  4  2  -20  2  40.20  -35.78  60.25  <
  5  2  20  -2  56.23  73.44  71.55  <
  5  2  -20  -2  53.46  71.55  73.43  <
  5  2  20  -1  1169.15  1070.45  132.14  o
  5  2  -20  -1  1196.57  938.55  119.32  o
  5  2  20  0  1469.76  1581.53  146.72  o
  5  2  -20  0  1535.46  1719.22  148.38  o
  5  2  20  1  31.08  90.38  67.77  <
  5  2  -20  1  34.60  43.31  65.90  <
  5  2  20  2  131.75  18.83  64.05  <
  5  2  -20  2  127.27  30.13  71.58  <
  6  2  20  -2  2.84  0.00  67.78  <
  6  2  -20  -2  4.50  114.86  80.94  <
  6  2  20  -1  54.17  86.62  67.78  <
  6  2  -20  -1  53.67  77.20  69.66  <
  6  2  20  0  5895.65  5861.08  291.44  o
  6  2  -20  0  5941.50  5513.27  244.75  o
  6  2  20  1  390.39  418.12  99.79  o
  6  2  -20  1  389.50  203.41  71.75  <
  6  2  20  2  8.91  -37.66  62.13  <
  6  2  -20  2  7.20  0.00  67.78  <
  7  2  20  -2  44.01  52.72  73.43  <
  7  2  -20  -2  50.64  9.41  65.91  <
  7  2  20  -1  1210.98  1253.26  145.02  o
  7  2  -20  -1  1270.04  1179.81  139.68  o
  7  2  20  0  2108.17  2447.82  177.97  o
  7  2  -20  0  2212.79  1948.23  155.58  o
  7  2  20  1  96.99  47.08  77.21  <
  7  2  -20  1  91.31  24.48  67.80  <
  7  2  20  2  59.30  56.49  75.32  <
  7  2  -20  2  55.14  26.36  71.56  <
  8  2  20  -2  161.38  192.08  84.72  <
  8  2  -20  -2  164.25  62.14  71.60  <
  8  2  20  -1  489.01  553.77  111.05  o
  8  2  -20  -1  493.40  497.26  101.71  o
  8  2  20  0  445.11  359.75  101.80  o
  8  2  -20  0  407.16  425.66  103.57  o
  8  2  20  1  655.58  736.56  122.32  o
  8  2  -20  1  670.63  312.71  89.00  o
  8  2  20  2  32.61  0.00  73.44  <
  8  2  -20  2  33.91  -16.95  71.55  <
  9  2  20  -2  102.63  158.17  88.48  <
  9  2  -20  -2  99.14  105.45  84.73  <
  9  2  20  -1  920.97  819.60  126.42  o
  9  2  -20  -1  840.09  791.30  139.49  o
  9  2  20  0  1783.94  1719.40  167.97  o
  9  2  -20  0  1721.44  1638.26  168.01  o
  9  2  20  1  61.74  161.93  86.58  <
  9  2  -20  1  62.29  182.65  90.33  <
  10  2  20  -2  47.45  -92.26  84.71  <
  10  2  -20  -2  41.30  9.41  84.73  <
  10  2  20  -1  94.54  67.79  84.74  <
  10  2  -20  -1  87.13  64.02  90.39  <
  0  3  20  -2  48.02  86.62  84.72  <
  0  3  -20  -2  42.83  -97.91  71.53  <
  0  3  20  -1  58.33  -20.71  67.79  <
  0  3  -20  -1  42.04  -26.36  84.73  <
  0  3  20  0  9669.68  9508.02  456.11  o
  0  3  -20  0  9897.04  9145.42  391.82  o
  0  3  20  1  4208.50  3888.97  389.96  o
  0  3  -20  1  4216.02  4083.54  264.98  o
  0  3  20  2  109.84  -26.36  103.57  <
  0  3  -20  2  98.24  -75.32  75.31  <
  1  3  20  -2  86.32  79.09  52.73  <
  1  3  -20  -2  83.55  -43.31  58.37  <
  1  3  20  -1  138.53  128.05  67.80  <
  1  3  -20  -1  146.46  71.56  62.17  <
  1  3  20  0  742.09  535.04  94.55  o
  1  3  -20  0  674.39  565.15  88.74  o
  1  3  20  1  600.46  531.21  107.47  o
  1  3  -20  1  613.78  670.61  99.74  o
  1  3  20  2  49.03  -1.88  79.09  <
  1  3  -20  2  48.60  39.54  62.14  <
  2  3  20  -2  14.11  3.77  56.49  <
  2  3  -20  -2  14.50  22.59  56.49  <
  2  3  20  -1  42.34  20.71  58.37  <
  2  3  -20  -1  42.59  56.49  60.25  <
  2  3  20  0  110.31  94.15  64.03  <
  2  3  -20  0  101.37  186.42  75.27  <
  2  3  20  1  159.50  114.87  77.23  <
  2  3  -20  1  161.57  82.86  64.06  <
  2  3  20  2  5.33  43.31  69.66  <
  2  3  -20  2  4.62  -39.54  67.78  <
  3  3  20  -2  120.81  77.21  67.81  <
  3  3  -20  -2  120.08  114.87  60.26  <
  3  3  20  -1  435.65  242.97  77.43  o
  3  3  -20  -1  417.65  397.42  90.43  o
  3  3  20  0  1130.02  1010.08  119.00  o
  3  3  -20  0  1296.82  1274.07  143.29  o
  3  3  20  1  773.97  989.08  129.59  o
  3  3  -20  1  751.88  683.87  115.03  o
  3  3  20  2  15.93  32.01  69.67  <
  3  3  -20  2  16.29  35.78  69.67  <
  4  3  20  -2  76.52  33.89  64.03  <
  4  3  -20  -2  67.63  -7.53  58.38  <
  4  3  20  -1  120.65  82.85  67.80  <
  4  3  -20  -1  95.85  99.80  71.55  <
  4  3  20  0  1934.38  1670.64  144.17  o
  4  3  -20  0  1799.19  1921.23  157.99  o
  4  3  20  1  3732.81  3819.46  192.12  o
  4  3  -20  1  3681.39  3600.31  200.51  o
  4  3  20  2  60.78  -56.49  64.01  <
  4  3  -20  2  56.77  -50.84  64.01  <
  5  3  20  -2  90.39  160.06  75.29  <
  5  3  -20  -2  94.15  114.86  69.66  <
  5  3  20  -1  257.80  146.89  69.76  <
  5  3  -20  -1  266.94  141.24  73.53  <
  5  3  20  0  382.96  188.34  79.27  <
  5  3  -20  0  365.20  339.01  92.31  o
  5  3  20  1  655.93  776.12  114.71  o
  5  3  -20  1  639.75  713.95  116.68  o
  5  3  20  2  29.71  156.28  77.15  <
  5  3  -20  2  31.80  -56.49  67.78  <
  6  3  20  -2  16.95  24.48  71.55  <
  6  3  -20  -2  16.03  -5.65  64.02  <
  6  3  20  -1  117.78  32.01  77.22  <
  6  3  -20  -1  113.50  41.43  67.81  <
  6  3  20  0  25.08  28.24  65.90  <
  6  3  -20  0  37.49  54.61  69.67  <
  6  3  20  1  8.04  35.78  69.66  <
  6  3  -20  1  7.20  -47.07  65.89  <
  7  3  20  -2  45.26  92.26  75.31  <
  7  3  -20  -2  40.39  58.37  71.55  <
  7  3  20  -1  217.49  216.57  90.39  <
  7  3  -20  -1  248.27  26.37  67.88  <
  7  3  20  0  607.38  518.02  113.14  o
  7  3  -20  0  457.65  404.95  94.24  o
  8  3  20  -2  31.22  5.65  73.44  <
  8  3  -20  -2  31.40  -26.36  71.55  <
  8  3  20  -1  174.15  195.85  88.49  <
  8  3  -20  -1  182.19  62.14  73.49  <
  8  3  20  0  3767.44  3787.19  454.95  o
  8  3  -20  0  3862.98  4044.22  299.56  o
  9  3  20  -2  103.80  48.96  80.98  <
  9  3  -20  -2  94.89  56.49  75.33  <
  0  4  20  -2  63.36  28.24  88.50  <
  0  4  -20  -2  66.12  75.32  82.85  <
  0  4  20  -1  2123.70  1727.41  242.20  o
  0  4  -20  -1  2123.20  1912.22  209.86  o
  0  4  20  0  3108.34  2800.45  300.84  o
  0  4  -20  0  2998.61  3179.51  246.58  o
  1  4  20  -2  15.42  -30.13  64.02  <
  1  4  -20  -2  16.33  -1.88  54.60  <
  1  4  20  -1  638.97  555.71  109.38  o
  1  4  -20  -1  691.70  393.72  87.11  o
  1  4  20  0  2564.70  2544.70  196.25  o
  1  4  -20  0  2803.43  2484.76  174.84  o
  2  4  20  -2  9.30  -82.85  62.12  <
  2  4  -20  -2  8.95  80.96  67.77  <
  2  4  20  -1  24.31  -43.31  73.43  <
  2  4  -20  -1  27.26  -26.36  65.90  <
  2  4  20  0  148.32  135.58  82.86  <
  2  4  -20  0  146.35  69.67  82.88  <
  3  4  20  -2  62.12  88.50  73.43  <
  3  4  -20  -2  67.75  13.18  65.91  <
  3  4  20  -1  849.13  894.92  124.26  o
  3  4  -20  -1  831.15  981.58  122.16  o
  3  4  20  0  3169.96  2828.84  186.38  o
  3  4  -20  0  2974.90  3102.05  186.25  o
  4  4  20  -2  47.65  69.67  71.55  <
  4  4  -20  -2  44.77  -5.65  67.79  <
  4  4  20  -1  997.90  955.31  128.21  o
  4  4  -20  -1  1024.14  1032.59  137.54  o
  5  4  20  -2  15.03  79.08  67.77  <
  5  4  -20  -2  14.10  45.19  71.55  <
  5  4  20  -1  365.56  431.29  94.09  o
  5  4  -20  -1  359.12  258.02  88.61  <
  6  4  20  -2  1.73  32.01  69.66  <
  6  4  -20  -2  1.00  -30.13  64.02  <
  7  4  20  -2  22.51  69.67  80.96  <
  7  4  -20  -2  27.37  32.01  69.67  <
  0  5  20  -2  80.03  -60.26  124.27  <
  0  5  -20  -2  75.05  96.03  105.44  <
  1  5  20  -2  195.90  229.74  94.14  <
  1  5  -20  -2  189.38  71.56  75.37  <
  1  0  21  1  652.54  713.99  105.39  o
  1  0  -21  1  642.43  668.77  103.57  o
  1  0  21  2  85.93  43.31  58.38  <
  1  0  -21  2  88.72  3.77  56.50  <
  2  0  21  0  13650.80  14311.70  557.06  o
  2  0  -21  0  13494.30  15621.20  561.80  o
  2  0  21  1  397.37  431.32  88.48  o
  2  0  -21  1  387.23  406.83  84.73  o
  2  0  21  2  23.34  116.74  60.22  <
  2  0  -21  2  20.55  50.84  60.25  <
  3  0  21  1  204.29  152.54  67.83  <
  3  0  -21  1  209.26  131.82  64.08  <
  3  0  21  2  83.35  22.60  60.27  <
  3  0  -21  2  81.85  33.89  60.27  <
  4  0  21  0  660.78  661.24  146.94  o
  4  0  -21  0  648.12  779.91  161.85  o
  4  0  21  1  18.20  13.18  56.49  <
  4  0  -21  1  23.56  -41.42  52.72  <
  4  0  21  2  22.72  -15.06  58.37  <
  4  0  -21  2  25.06  47.07  62.13  <
  5  0  21  1  309.08  278.73  82.89  o
  5  0  -21  1  286.37  310.74  82.84  o
  5  0  21  2  73.46  -88.50  64.00  <
  5  0  -21  2  73.67  -16.95  58.38  <
  6  0  21  0  8039.69  9341.28  436.26  o
  6  0  -21  0  8101.65  8794.21  416.80  o
  6  0  21  1  303.88  273.08  96.07  <
  6  0  -21  1  311.90  241.07  96.10  <
  6  0  21  2  8.16  33.89  80.96  <
  6  0  -21  2  8.93  1.88  73.43  <
  7  0  21  1  393.97  450.14  114.83  o
  7  0  -21  1  374.65  290.05  126.25  <
  7  0  21  2  98.51  -37.66  73.44  <
  7  0  -21  2  97.96  54.61  84.75  <
  8  0  21  0  12761.50  13195.50  821.10  o
  8  0  -21  0  12693.10  12945.90  785.68  o
  8  0  21  1  207.48  90.39  111.14  <
  8  0  -21  1  196.32  274.94  118.60  <
  8  0  21  2  14.18  -18.83  86.61  <
  8  0  -21  2  10.45  9.41  105.44  <
  9  0  21  1  571.65  599.01  163.85  o
  9  0  -21  1  588.27  356.02  135.82  <
  9  0  21  2  49.02  94.15  111.09  <
  9  0  -21  2  51.87  186.41  129.88  <
  10  0  21  0  11298.80  10150.70  742.69  o
  10  0  -21  0  11194.50  11560.00  755.78  o
  10  0  21  1  81.31  28.24  122.40  <
  10  0  -21  1  69.47  146.87  124.26  <
  1  1  21  -2  69.09  71.55  64.02  <
  1  1  -21  -2  68.58  141.22  67.75  <
  1  1  21  -1  603.32  674.40  99.72  o
  1  1  -21  -1  593.06  576.44  99.87  o
  1  1  21  0  708.92  714.02  105.49  o
  1  1  -21  0  697.91  844.00  110.87  o
  1  1  21  1  311.48  440.70  92.14  o
  1  1  -21  1  332.83  322.06  84.76  o
  1  1  21  2  49.80  30.13  58.38  <
  1  1  -21  2  51.48  0.00  54.61  <
  2  1  21  -2  67.41  33.89  56.50  <
  2  1  -21  -2  63.67  24.48  58.38  <
  2  1  21  -1  637.06  691.37  103.52  o
  2  1  -21  -1  653.10  800.64  110.88  o
  2  1  21  0  12096.50  13596.90  366.13  o
  2  1  -21  0  12089.60  13262.20  361.60  o
  2  1  21  1  3499.67  3961.11  186.31  o
  2  1  -21  1  3511.24  3991.35  186.19  o
  2  1  21  2  62.11  -3.77  52.73  <
  2  1  -21  2  55.24  -3.77  58.38  <
  3  1  21  -2  57.02  58.37  62.14  <
  3  1  -21  -2  60.03  -9.41  60.26  <
  3  1  21  -1  584.15  491.66  92.44  o
  3  1  -21  -1  606.63  687.58  103.47  o
  3  1  21  0  399.41  288.17  84.87  o
  3  1  -21  0  365.86  284.40  82.95  o
  3  1  21  1  359.36  372.92  84.74  o
  3  1  -21  1  365.80  363.50  86.64  o
  3  1  21  2  92.76  16.95  60.27  <
  3  1  -21  2  99.77  56.49  65.92  <
  4  1  21  -2  3.40  -33.89  52.72  <
  4  1  -21  -2  1.90  -28.24  54.60  <
  4  1  21  -1  105.68  47.08  60.27  <
  4  1  -21  -1  109.24  75.32  64.04  <
  4  1  21  0  482.52  416.27  92.38  o
  4  1  -21  0  473.90  502.92  96.02  o
  4  1  21  1  61.37  62.14  77.20  <
  4  1  -21  1  66.60  96.03  67.78  <
  4  1  21  2  3.62  52.72  69.66  <
  4  1  -21  2  2.08  11.30  75.32  <
  5  1  21  -2  25.82  28.24  62.14  <
  5  1  -21  -2  26.10  15.06  62.14  <
  5  1  21  -1  572.37  740.30  120.30  o
  5  1  -21  -1  590.82  548.17  98.02  o
  5  1  21  0  781.30  738.53  131.95  o
  5  1  -21  0  818.07  855.37  135.59  o
  5  1  21  1  309.28  241.07  105.51  <
  5  1  -21  1  290.91  363.48  101.63  o
  5  1  21  2  26.47  -52.72  64.01  <
  5  1  -21  2  26.50  -1.88  79.08  <
  6  1  21  -2  47.88  109.21  80.95  <
  6  1  -21  -2  44.42  -41.42  64.02  <
  6  1  21  -1  506.13  461.48  109.30  o
  6  1  -21  -1  508.12  497.27  111.15  o
  6  1  21  0  7018.32  8067.31  342.03  o
  6  1  -21  0  7181.42  7405.72  322.36  o
  6  1  21  1  3836.34  4048.50  301.38  o
  6  1  -21  1  3843.06  3699.18  227.23  o
  6  1  21  2  51.95  -9.41  71.56  <
  6  1  -21  2  46.68  35.78  84.73  <
  7  1  21  -2  49.58  71.55  84.73  <
  7  1  -21  -2  46.80  -43.31  88.50  <
  7  1  21  -1  296.40  261.78  105.49  <
  7  1  -21  -1  290.79  359.71  107.29  o
  7  1  21  0  452.73  284.41  111.26  <
  7  1  -21  0  514.06  604.64  124.21  o
  7  1  21  1  241.15  167.61  101.73  <
  7  1  -21  1  220.72  248.58  96.02  <
  7  1  21  2  69.71  3.77  71.56  <
  7  1  -21  2  66.17  94.15  71.54  <
  8  1  21  -2  70.33  146.87  114.84  <
  8  1  -21  -2  71.08  141.22  114.84  <
  8  1  21  -1  69.77  175.12  122.36  <
  8  1  -21  -1  68.14  -96.03  88.48  <
  8  1  21  0  4.54  -7.53  88.50  <
  8  1  -21  0  12.70  -11.30  112.97  <
  8  1  21  1  139.66  56.49  77.23  <
  8  1  -21  1  129.12  152.53  94.14  <
  8  1  21  2  89.92  30.13  79.10  <
  8  1  -21  2  92.71  30.13  73.45  <
  9  1  21  -2  13.67  -13.18  105.44  <
  9  1  -21  -2  12.63  -84.73  96.01  <
  9  1  21  -1  433.02  374.81  143.19  <
  9  1  -21  -1  416.70  325.84  139.44  <
  9  1  21  0  265.36  306.97  150.64  <
  9  1  -21  0  261.49  376.65  141.17  <
  9  1  21  1  352.28  406.81  107.30  o
  9  1  -21  1  378.65  325.83  111.16  <
  9  1  21  2  37.39  64.02  82.84  <
  9  1  -21  2  37.47  -58.37  80.96  <
  10  1  21  -2  30.92  -9.41  118.62  <
  10  1  -21  -2  28.40  33.89  118.62  <
  10  1  21  -1  980.75  489.89  162.57  o
  10  1  -21  -1  979.77  687.73  181.22  o
  1  2  21  -2  2.17  60.25  60.24  <
  1  2  -21  -2  2.28  -28.24  56.48  <
  1  2  21  -1  750.94  795.04  109.19  o
  1  2  -21  -1  808.03  906.24  116.62  o
  1  2  21  0  545.13  566.99  86.61  o
  1  2  -21  0  591.08  440.80  96.28  o
  1  2  21  1  59.62  24.48  56.50  <
  1  2  -21  1  58.30  52.72  71.55  <
  1  2  21  2  87.94  -26.36  56.50  <
  1  2  -21  2  89.45  175.12  80.93  <
  2  2  21  -2  92.38  71.55  60.26  <
  2  2  -21  -2  91.44  94.15  67.79  <
  2  2  21  -1  311.28  241.07  77.28  o
  2  2  -21  -1  304.27  273.08  82.89  o
  2  2  21  0  9291.40  8836.61  290.12  o
  2  2  -21  0  9246.01  9280.01  308.81  o
  2  2  21  1  467.42  401.20  86.73  o
  2  2  -21  1  465.76  427.57  99.87  o
  2  2  21  2  14.36  -32.01  60.25  <
  2  2  -21  2  13.84  32.01  67.78  <
  3  2  21  -2  5.55  5.65  56.49  <
  3  2  -21  -2  6.30  5.65  64.02  <
  3  2  21  -1  331.11  269.32  84.81  o
  3  2  -21  -1  302.66  226.00  75.40  <
  3  2  21  0  553.61  412.53  96.25  o
  3  2  -21  0  462.27  455.82  101.72  o
  3  2  21  1  187.99  233.51  80.94  <
  3  2  -21  1  201.47  114.87  86.66  <
  3  2  21  2  106.51  82.85  73.45  <
  3  2  -21  2  102.64  48.96  71.57  <
  4  2  21  -2  14.44  43.31  75.31  <
  4  2  -21  -2  14.58  -11.30  62.14  <
  4  2  21  -1  73.29  126.16  75.30  <
  4  2  -21  -1  78.58  52.72  64.03  <
  4  2  21  0  899.44  849.76  124.45  o
  4  2  -21  0  890.32  516.26  119.24  o
  4  2  21  1  16.66  47.07  71.55  <
  4  2  -21  1  16.80  54.60  69.66  <
  4  2  21  2  9.26  -26.36  64.02  <
  4  2  -21  2  9.03  146.87  80.92  <
  5  2  21  -2  17.51  20.71  77.20  <
  5  2  -21  -2  14.94  3.77  71.55  <
  5  2  21  -1  645.97  548.19  109.40  o
  5  2  -21  -1  595.74  599.03  124.32  o
  5  2  21  0  358.88  322.06  92.32  o
  5  2  -21  0  350.51  210.94  103.68  <
  5  2  21  1  272.06  205.28  82.91  <
  5  2  -21  1  279.81  161.96  79.18  <
  5  2  21  2  83.24  33.89  69.68  <
  5  2  -21  2  83.03  94.15  77.20  <
  6  2  21  -2  73.35  45.19  79.09  <
  6  2  -21  -2  73.33  37.66  75.33  <
  6  2  21  -1  291.23  152.55  81.07  <
  6  2  -21  -1  281.48  271.19  99.82  <
  6  2  21  0  813.44  504.92  105.98  o
  6  2  -21  0  699.19  608.49  113.17  o
  6  2  21  1  122.61  -7.53  79.10  <
  6  2  -21  1  144.10  96.04  79.11  <
  6  2  21  2  20.21  -109.21  73.40  <
  6  2  -21  2  17.84  39.54  69.67  <
  7  2  21  -2  24.42  -35.78  75.31  <
  7  2  -21  -2  21.28  -52.72  69.66  <
  7  2  21  -1  433.78  388.00  99.87  o
  7  2  -21  -1  436.90  485.94  120.49  o
  7  2  21  0  370.36  410.58  107.31  o
  7  2  -21  0  432.89  365.39  99.89  o
  7  2  21  1  184.57  139.35  90.41  <
  7  2  -21  1  171.39  131.82  86.64  <
  7  2  21  2  98.90  97.92  92.27  <
  7  2  -21  2  98.54  45.19  73.45  <
  8  2  21  -2  4.83  32.01  94.14  <
  8  2  -21  -2  4.24  -35.78  99.79  <
  8  2  21  -1  41.79  94.15  77.19  <
  8  2  -21  -1  35.38  39.54  75.32  <
  8  2  21  0  11628.70  11288.90  444.70  o
  8  2  -21  0  11571.00  11108.10  432.29  o
  9  2  21  -2  30.50  62.14  107.32  <
  9  2  -21  -2  34.58  128.04  118.60  <
  9  2  21  -1  990.27  902.54  137.71  o
  9  2  -21  -1  1014.43  979.81  156.45  o
  1  3  21  -2  105.25  135.58  64.01  <
  1  3  -21  -2  103.59  45.19  64.04  <
  1  3  21  -1  797.53  772.45  109.32  o
  1  3  -21  -1  809.50  700.86  113.23  o
  1  3  21  0  2089.12  2355.34  170.67  o
  1  3  -21  0  2157.82  1989.60  179.67  o
  1  3  21  1  178.82  175.13  80.98  <
  1  3  -21  1  185.87  350.26  94.02  o
  1  3  21  2  136.74  116.75  86.63  <
  1  3  -21  2  136.22  97.92  77.22  <
  2  3  21  -2  83.64  114.86  69.66  <
  2  3  -21  -2  81.62  107.33  73.43  <
  2  3  21  -1  319.28  135.60  71.70  <
  2  3  -21  -1  294.96  116.76  75.44  <
  2  3  21  0  6630.24  6050.76  264.77  o
  2  3  -21  0  6592.31  6158.44  254.52  o
  2  3  21  1  2737.98  3022.35  183.68  o
  2  3  -21  1  2719.59  2637.45  183.32  o
  2  3  21  2  182.38  58.38  81.02  <
  2  3  -21  2  171.44  -20.71  75.35  <
  3  3  21  -2  89.18  188.30  75.27  <
  3  3  -21  -2  94.92  47.08  64.04  <
  3  3  21  -1  1041.95  1087.27  131.81  o
  3  3  -21  -1  1075.40  797.10  117.40  o
  3  3  21  0  2099.87  1619.88  180.42  o
  3  3  -21  0  1927.65  1911.94  162.21  o
  3  3  21  1  147.47  180.78  82.84  <
  3  3  -21  1  152.09  37.66  77.24  <
  4  3  21  -2  0.31  -32.01  62.13  <
  4  3  -21  -2  0.63  9.41  82.85  <
  4  3  21  -1  47.91  43.31  65.90  <
  4  3  -21  -1  52.31  15.06  73.44  <
  4  3  21  0  206.04  99.81  73.50  <
  4  3  -21  0  193.31  195.85  88.51  <
  4  3  21  1  17.07  32.01  69.67  <
  4  3  -21  1  18.36  -39.54  73.43  <
  5  3  21  -2  83.78  94.15  82.85  <
  5  3  -21  -2  80.18  32.01  67.80  <
  5  3  21  -1  853.73  761.16  116.98  o
  5  3  -21  -1  829.03  891.14  126.11  o
  5  3  21  0  3777.58  4070.54  208.08  o
  5  3  -21  0  3714.08  4117.55  217.03  o
  6  3  21  -2  59.39  107.33  73.42  <
  6  3  -21  -2  54.88  111.10  79.07  <
  6  3  21  -1  87.24  114.86  80.96  <
  6  3  -21  -1  81.76  45.19  71.56  <
  6  3  21  0  3703.68  3592.60  251.51  o
  6  3  -21  0  3833.57  3674.12  232.91  o
  7  3  21  -2  59.61  47.07  77.20  <
  7  3  -21  -2  55.74  -9.41  75.32  <
  7  3  21  -1  256.29  137.48  88.58  <
  7  3  -21  -1  242.30  158.19  88.56  <
  8  3  21  -2  20.40  33.89  80.96  <
  8  3  -21  -2  19.72  24.48  80.96  <
  1  4  21  -2  55.27  30.13  69.67  <
  1  4  -21  -2  56.74  0.00  75.32  <
  1  4  21  -1  119.54  120.51  80.97  <
  1  4  -21  -1  133.96  158.18  84.73  <
  2  4  21  -2  82.35  126.16  79.07  <
  2  4  -21  -2  77.46  54.61  73.44  <
  2  4  21  -1  82.70  -32.01  71.56  <
  2  4  -21  -1  80.06  71.55  82.85  <
  3  4  21  -2  53.21  5.65  71.56  <
  3  4  -21  -2  52.90  -28.24  77.20  <
  3  4  21  -1  37.20  -73.43  75.30  <
  3  4  -21  -1  37.87  33.89  80.97  <
  4  4  21  -2  10.69  30.13  71.55  <
  4  4  -21  -2  11.14  -5.65  71.55  <
  5  4  21  -2  63.95  75.32  77.20  <
  5  4  -21  -2  61.43  -26.36  71.55  <
  0  0  22  0  24240.80  25213.50  1143.31  o
  0  0  -22  0  23911.10  25723.00  1145.78  o
  0  0  22  1  3060.44  3601.04  260.45  o
  0  0  -22  1  3001.89  3789.60  269.02  o
  0  0  22  2  17.91  5.65  79.08  <
  0  0  -22  2  16.09  60.25  90.37  <
  1  0  22  1  8.69  13.18  60.25  <
  1  0  -22  1  10.57  -13.18  60.25  <
  1  0  22  2  26.78  -56.49  58.36  <
  1  0  -22  2  24.72  -41.42  64.01  <
  2  0  22  0  315.85  457.65  129.83  o
  2  0  -22  0  316.92  173.27  99.90  <
  2  0  22  1  12.91  37.66  62.13  <
  2  0  -22  1  13.33  50.84  65.90  <
  2  0  22  2  14.68  45.19  65.90  <
  2  0  -22  2  15.65  -60.25  52.71  <
  3  0  22  1  55.63  52.72  64.02  <
  3  0  -22  1  55.35  -11.30  62.14  <
  3  0  22  2  15.13  15.06  60.25  <
  3  0  -22  2  16.08  -3.77  58.37  <
  4  0  22  0  7093.44  8558.20  412.67  o
  4  0  -22  0  7237.99  7763.98  402.51  o
  4  0  22  1  1967.70  2385.39  156.81  o
  4  0  -22  1  1943.92  2270.33  153.40  o
  4  0  22  2  16.58  16.95  64.02  <
  4  0  -22  2  21.01  24.48  64.02  <
  5  0  22  1  13.67  60.25  69.66  <
  5  0  -22  1  14.82  45.19  65.90  <
  5  0  22  2  63.27  11.30  75.32  <
  5  0  -22  2  58.42  47.07  67.79  <
  6  0  22  0  1766.09  1936.25  250.41  o
  6  0  -22  0  1796.68  1906.13  220.34  o
  6  0  22  1  9.26  47.07  77.19  <
  6  0  -22  1  9.05  5.65  77.20  <
  6  0  22  2  4.76  -33.89  75.31  <
  6  0  -22  2  5.62  -18.83  75.31  <
  7  0  22  1  156.71  209.02  105.43  <
  7  0  -22  1  163.15  143.12  107.35  <
  7  0  22  2  38.70  -45.19  80.96  <
  7  0  -22  2  39.98  9.41  84.73  <
  8  0  22  0  12301.30  11243.30  784.88  o
  8  0  -22  0  11942.40  12697.00  788.73  o
  8  0  22  1  1887.14  1387.68  223.41  o
  8  0  -22  1  1879.66  2043.81  244.75  o
  8  0  22  2  0.91  -30.13  97.91  <
  8  0  -22  2  1.25  62.14  120.50  <
  0  1  22  -2  163.07  35.78  86.65  <
  0  1  -22  -2  173.76  182.66  105.45  <
  0  1  22  -1  31.54  15.06  86.62  <
  0  1  -22  -1  30.13  5.65  82.85  <
  0  1  22  0  4388.49  4598.35  299.54  o
  0  1  -22  0  4309.19  4632.07  300.96  o
  0  1  22  1  1540.16  1787.06  216.27  o
  0  1  -22  1  1567.77  1711.70  227.82  o
  0  1  22  2  14.17  71.55  97.90  <
  0  1  -22  2  16.77  16.95  86.61  <
  1  1  22  -2  76.41  7.53  56.50  <
  1  1  -22  -2  74.40  47.07  65.91  <
  1  1  22  -1  1426.43  1658.76  144.46  o
  1  1  -22  -1  1427.19  1455.19  145.07  o
  1  1  22  0  713.21  849.65  116.55  o
  1  1  -22  0  712.62  503.01  100.17  o
  1  1  22  1  314.21  365.37  88.46  o
  1  1  -22  1  293.83  421.86  94.03  o
  1  1  22  2  108.14  79.09  65.92  <
  1  1  -22  2  105.79  165.71  75.29  <
  2  1  22  -2  1.45  16.95  62.13  <
  2  1  -22  -2  1.26  -7.53  58.37  <
  2  1  22  -1  57.29  -62.14  56.48  <
  2  1  -22  -1  59.43  28.24  67.79  <
  2  1  22  0  3082.38  3833.12  196.44  o
  2  1  -22  0  3109.10  4099.32  200.82  o
  2  1  22  1  2.34  50.84  64.01  <
  2  1  -22  1  0.53  54.60  65.89  <
  2  1  22  2  0.50  35.77  77.20  <
  2  1  -22  2  0.22  45.19  62.13  <
  3  1  22  -2  58.78  -13.18  54.61  <
  3  1  -22  -2  56.97  9.41  58.38  <
  3  1  22  -1  1226.97  1500.18  148.20  o
  3  1  -22  -1  1230.86  1255.18  137.52  o
  3  1  22  0  505.70  587.69  105.37  o
  3  1  -22  0  532.07  491.63  98.01  o
  3  1  22  1  260.27  141.24  84.81  <
  3  1  -22  1  269.15  199.63  79.15  <
  3  1  22  2  112.50  84.74  84.75  <
  3  1  -22  2  115.42  32.01  65.93  <
  4  1  22  -2  121.68  -5.65  58.40  <
  4  1  -22  -2  117.39  3.77  60.28  <
  4  1  22  -1  7.12  -20.71  60.25  <
  4  1  -22  -1  9.42  64.02  67.77  <
  4  1  22  0  157.27  282.47  101.61  <
  4  1  -22  0  180.32  197.73  82.85  <
  4  1  22  1  587.40  493.53  116.90  o
  4  1  -22  1  573.94  625.39  109.18  o
  4  1  22  2  60.06  -94.15  73.41  <
  4  1  -22  2  60.88  -129.93  73.39  <
  5  1  22  -2  89.91  32.01  65.92  <
  5  1  -22  -2  84.54  90.38  69.67  <
  5  1  22  -1  954.36  825.29  139.65  o
  5  1  -22  -1  928.51  670.77  109.76  o
  5  1  22  0  701.02  774.27  139.30  o
  5  1  -22  0  675.74  661.22  131.89  o
  5  1  22  1  284.17  227.88  109.26  <
  5  1  -22  1  319.20  94.17  88.63  <
  5  1  22  2  129.33  18.83  84.76  <
  5  1  -22  2  129.62  96.04  88.51  <
  6  1  22  -2  29.42  -26.36  64.02  <
  6  1  -22  -2  27.09  -1.88  73.43  <
  6  1  22  -1  142.11  133.70  92.27  <
  6  1  -22  -1  127.42  177.01  92.25  <
  6  1  22  0  4.41  -37.66  75.31  <
  6  1  -22  0  20.81  -1.88  73.43  <
  6  1  22  1  374.68  397.40  114.87  o
  6  1  -22  1  368.65  446.36  120.46  o
  6  1  22  2  29.47  65.90  96.02  <
  6  1  -22  2  28.39  32.01  79.08  <
  7  1  22  -2  61.06  20.71  103.57  <
  7  1  -22  -2  61.57  152.52  114.83  <
  7  1  22  -1  1361.39  1223.20  171.79  o
  7  1  -22  -1  1366.93  861.34  185.46  o
  7  1  22  0  536.69  427.58  120.66  o
  7  1  -22  0  480.11  446.40  118.70  o
  7  1  22  1  239.72  218.45  105.47  <
  7  1  -22  1  260.94  248.59  107.35  <
  7  1  22  2  53.25  43.31  94.15  <
  7  1  -22  2  54.41  -60.25  79.08  <
  8  1  22  -2  85.47  94.15  111.10  <
  8  1  -22  -2  87.30  169.47  126.14  <
  8  1  22  -1  219.16  310.73  141.19  <
  8  1  -22  -1  218.47  248.58  128.04  <
  8  1  22  0  170.68  229.74  105.42  <
  8  1  -22  0  145.69  24.48  111.12  <
  8  1  22  1  1501.20  1413.67  190.55  o
  8  1  -22  1  1518.13  1585.22  241.15  o
  0  2  22  -2  33.25  -20.71  82.85  <
  0  2  -22  -2  27.72  79.08  96.02  <
  0  2  22  -1  237.24  180.79  105.49  <
  0  2  -22  -1  223.34  316.38  126.12  <
  0  2  22  0  10558.70  11162.30  484.08  o
  0  2  -22  0  10360.10  10194.80  473.41  o
  0  2  22  1  3602.40  3428.39  255.50  o
  0  2  -22  1  3590.78  3292.43  376.40  o
  0  2  22  2  32.37  -9.41  92.26  <
  0  2  -22  2  33.06  -52.72  90.37  <
  1  2  22  -2  29.59  18.83  60.25  <
  1  2  -22  -2  29.33  69.67  64.01  <
  1  2  22  -1  80.33  54.61  62.15  <
  1  2  -22  -1  80.33  37.66  64.03  <
  1  2  22  0  389.14  653.55  112.65  o
  1  2  -22  0  399.90  359.74  92.33  o
  1  2  22  1  252.68  252.35  80.98  o
  1  2  -22  1  266.23  244.82  84.76  <
  1  2  22  2  18.08  39.54  67.78  <
  1  2  -22  2  15.52  33.89  73.43  <
  2  2  22  -2  19.74  20.71  58.37  <
  2  2  -22  -2  20.09  0.00  65.90  <
  2  2  22  -1  2.25  0.00  58.37  <
  2  2  -22  -1  1.71  15.06  64.02  <
  2  2  22  0  190.93  22.60  77.26  <
  2  2  -22  0  189.27  203.38  82.85  <
  2  2  22  1  35.06  37.66  69.67  <
  2  2  -22  1  34.76  13.18  71.55  <
  2  2  22  2  22.25  5.65  69.67  <
  2  2  -22  2  23.57  -56.49  73.43  <
  3  2  22  -2  25.13  158.16  77.15  <
  3  2  -22  -2  24.84  48.96  65.90  <
  3  2  22  -1  62.43  133.69  84.71  <
  3  2  -22  -1  48.05  62.14  71.55  <
  3  2  22  0  383.36  124.31  94.33  <
  3  2  -22  0  314.60  214.70  84.83  <
  3  2  22  1  232.05  265.53  94.14  <
  3  2  -22  1  199.45  265.53  105.42  <
  3  2  22  2  23.71  -20.71  71.55  <
  3  2  -22  2  23.18  43.31  90.38  <
  4  2  22  -2  47.19  52.72  77.20  <
  4  2  -22  -2  54.90  -26.36  62.14  <
  4  2  22  -1  149.30  86.62  90.41  <
  4  2  -22  -1  149.15  131.82  90.40  <
  4  2  22  0  4741.47  5069.33  283.78  o
  4  2  -22  0  4795.00  4963.72  276.96  o
  4  2  22  1  2667.82  2554.36  175.89  o
  4  2  -22  1  2648.23  2407.17  215.80  o
  4  2  22  2  39.77  13.18  71.55  <
  4  2  -22  2  51.07  -13.18  90.38  <
  5  2  22  -2  39.36  82.85  86.61  <
  5  2  -22  -2  37.75  -45.19  69.66  <
  5  2  22  -1  36.89  -71.55  77.19  <
  5  2  -22  -1  31.36  20.71  82.85  <
  5  2  22  0  38.12  -33.89  73.43  <
  5  2  -22  0  23.82  -69.67  77.19  <
  5  2  22  1  173.38  150.65  86.63  <
  5  2  -22  1  162.48  65.91  88.53  <
  5  2  22  2  62.63  -20.71  75.32  <
  5  2  -22  2  59.71  58.37  79.08  <
  6  2  22  -2  3.75  -131.80  75.27  <
  6  2  -22  -2  4.64  -60.25  73.42  <
  6  2  22  -1  2.06  13.18  88.50  <
  6  2  -22  -1  1.93  -20.71  88.49  <
  6  2  22  0  608.94  489.77  115.05  o
  6  2  -22  0  626.62  721.47  146.81  o
  6  2  22  1  22.16  22.59  88.50  <
  6  2  -22  1  21.76  -26.36  90.38  <
  7  2  22  -2  41.23  118.62  97.89  <
  7  2  -22  -2  44.44  73.43  86.61  <
  7  2  22  -1  410.51  391.76  131.86  <
  7  2  -22  -1  414.11  470.86  128.02  o
  7  2  22  0  631.98  553.82  120.66  o
  7  2  -22  0  703.02  508.63  126.45  o
  8  2  22  -2  12.13  -3.77  97.91  <
  8  2  -22  -2  8.74  -22.59  99.79  <
  0  3  22  -2  92.99  180.77  111.07  <
  0  3  -22  -2  93.02  71.55  103.57  <
  0  3  22  -1  286.34  201.51  126.22  <
  0  3  -22  -1  309.73  73.45  99.91  <
  0  3  22  0  4300.60  4891.78  480.08  o
  0  3  -22  0  4178.12  4084.94  319.49  o
  1  3  22  -2  35.36  -26.36  62.14  <
  1  3  -22  -2  31.57  41.42  71.55  <
  1  3  22  -1  1138.43  787.70  108.20  o
  1  3  -22  -1  1091.34  1010.03  139.61  o
  1  3  22  0  2481.89  2538.89  209.19  o
  1  3  -22  0  2454.59  2216.30  180.00  o
  2  3  22  -2  3.97  -5.65  69.67  <
  2  3  -22  -2  4.12  -26.36  67.78  <
  2  3  22  -1  32.28  39.54  64.02  <
  2  3  -22  -1  36.54  129.92  77.17  <
  2  3  22  0  1168.65  861.20  121.26  o
  2  3  -22  0  1199.91  895.14  158.81  o
  3  3  22  -2  50.15  79.08  77.19  <
  3  3  -22  -2  49.10  67.79  84.73  <
  3  3  22  -1  1190.85  1140.13  135.80  o
  3  3  -22  -1  1212.23  1300.33  175.09  o
  3  3  22  0  2790.78  2624.32  178.01  o
  3  3  -22  0  2718.70  3186.38  232.31  o
  4  3  22  -2  84.52  122.39  79.07  <
  4  3  -22  -2  79.51  73.44  88.50  <
  4  3  22  -1  854.58  700.86  117.07  o
  4  3  -22  -1  852.26  587.82  139.76  o
  4  3  22  0  759.40  855.29  127.94  o
  4  3  -22  0  719.42  800.64  129.86  o
  5  3  22  -2  56.45  67.79  79.08  <
  5  3  -22  -2  53.55  47.07  86.62  <
  5  3  22  -1  692.49  476.61  109.55  o
  5  3  -22  -1  697.41  589.64  137.65  o
  6  3  22  -2  15.06  -75.32  73.42  <
  6  3  -22  -2  14.64  33.89  92.26  <
  0  4  22  -2  80.32  35.78  101.69  <
  0  4  -22  -2  71.85  152.52  131.79  <
  1  4  22  -2  160.55  62.14  75.36  <
  1  4  -22  -2  154.85  33.90  84.77  <
  2  4  22  -2  7.79  45.19  75.31  <
  2  4  -22  -2  7.85  30.13  90.38  <
  1  0  23  1  452.70  582.01  101.53  o
  1  0  -23  1  447.24  501.02  103.53  o
  1  0  23  2  20.31  -37.66  58.37  <
  1  0  -23  2  20.78  0.00  64.02  <
  2  0  23  0  11167.20  12947.90  761.23  o
  2  0  -23  0  11235.10  12409.30  518.71  o
  2  0  23  1  2280.36  2542.43  168.73  o
  2  0  -23  1  2276.56  2533.00  168.76  o
  2  0  23  2  44.64  -26.36  58.37  <
  2  0  -23  2  43.06  -22.60  62.14  <
  3  0  23  1  224.29  45.20  65.99  <
  3  0  -23  1  212.37  269.30  88.47  o
  3  0  23  2  38.36  101.68  73.42  <
  3  0  -23  2  37.24  112.98  73.41  <
  4  0  23  0  106.86  48.96  92.28  <
  4  0  -23  0  108.38  47.08  105.46  <
  4  0  23  1  21.46  -37.66  62.13  <
  4  0  -23  1  17.64  -15.06  62.14  <
  4  0  23  2  17.14  -9.41  73.43  <
  4  0  -23  2  17.03  -20.71  64.02  <
  5  0  23  1  241.25  203.39  97.95  <
  5  0  -23  1  263.11  269.30  88.51  o
  5  0  23  2  24.72  129.92  88.47  <
  5  0  -23  2  25.30  9.41  79.08  <
  6  0  23  0  9479.25  9700.50  702.51  o
  6  0  -23  0  9580.10  9579.86  671.14  o
  6  0  23  1  2375.42  2559.45  206.88  o
  6  0  -23  1  2321.39  2793.22  213.46  o
  6  0  23  2  8.44  18.83  82.85  <
  6  0  -23  2  12.00  80.96  90.37  <
  7  0  23  1  218.61  241.05  133.70  <
  7  0  -23  1  229.67  73.44  126.22  <
  7  0  23  2  24.37  60.25  97.91  <
  7  0  -23  2  24.34  73.43  114.85  <
  1  1  23  -2  32.41  65.90  67.78  <
  1  1  -23  -2  31.69  -16.95  62.14  <
  1  1  23  -1  836.13  855.36  122.43  o
  1  1  -23  -1  769.45  1034.30  129.48  o
  1  1  23  0  189.63  146.89  73.47  <
  1  1  -23  0  213.65  180.79  75.35  <
  1  1  23  1  25.78  144.99  75.27  <
  1  1  -23  1  17.05  -75.32  56.47  <
  1  1  23  2  94.63  107.33  77.20  <
  1  1  -23  2  97.28  92.27  75.32  <
  2  1  23  -2  72.73  82.85  65.90  <
  2  1  -23  -2  78.15  96.03  69.66  <
  2  1  23  -1  88.56  150.64  71.52  <
  2  1  -23  -1  100.43  190.19  79.04  <
  2  1  23  0  5081.18  5596.14  236.90  o
  2  1  -23  0  5143.89  5367.71  238.71  o
  2  1  23  1  174.92  146.88  75.34  <
  2  1  -23  1  187.18  94.16  81.01  <
  2  1  23  2  2.16  60.25  77.19  <
  2  1  -23  2  2.69  30.13  71.55  <
  3  1  23  -2  37.62  96.03  75.30  <
  3  1  -23  -2  39.80  1.88  65.91  <
  3  1  23  -1  698.21  602.83  107.53  o
  3  1  -23  -1  740.09  753.57  111.13  o
  3  1  23  0  281.71  177.03  77.29  <
  3  1  -23  0  256.91  231.64  84.76  <
  3  1  23  1  98.60  152.52  90.36  <
  3  1  -23  1  106.22  82.85  77.21  <
  3  1  23  2  99.12  -20.71  88.51  <
  3  1  -23  2  100.93  99.80  73.44  <
  4  1  23  -2  6.65  35.78  62.13  <
  4  1  -23  -2  5.67  -33.89  67.78  <
  4  1  23  -1  238.74  248.59  88.50  <
  4  1  -23  -1  232.55  274.95  88.48  o
  4  1  23  0  1564.95  1287.48  168.38  o
  4  1  -23  0  1530.81  1521.19  154.59  o
  4  1  23  1  374.36  308.88  101.76  o
  4  1  -23  1  378.25  382.33  113.00  o
  4  1  23  2  14.34  -16.95  82.85  <
  4  1  -23  2  12.98  39.54  92.26  <
  5  1  23  -2  28.60  16.95  64.02  <
  5  1  -23  -2  30.55  7.53  67.79  <
  5  1  23  -1  920.76  1002.37  152.48  o
  5  1  -23  -1  978.30  770.65  136.01  o
  5  1  23  0  207.89  169.49  99.83  <
  5  1  -23  0  196.99  207.15  99.80  <
  5  1  23  1  64.75  24.48  88.50  <
  5  1  -23  1  70.05  -13.18  77.21  <
  5  1  23  2  71.91  16.95  82.86  <
  5  1  -23  2  69.99  139.34  103.54  <
  6  1  23  -2  70.21  209.01  92.20  <
  6  1  -23  -2  66.54  122.39  94.13  <
  6  1  23  -1  304.95  386.08  112.93  o
  6  1  -23  -1  308.19  173.26  99.89  <
  6  1  23  0  9345.36  10087.80  402.72  o
  6  1  -23  0  9341.53  9974.02  700.88  o
  6  1  23  1  41.83  48.96  90.38  <
  6  1  -23  1  37.98  43.31  88.50  <
  7  1  23  -2  99.50  86.62  109.22  <
  7  1  -23  -2  99.42  148.76  112.97  <
  7  1  23  -1  792.71  721.55  145.16  o
  7  1  -23  -1  766.65  1250.92  210.33  o
  1  2  23  -2  69.16  103.56  69.66  <
  1  2  -23  -2  72.57  79.09  73.43  <
  1  2  23  -1  852.55  947.68  126.05  o
  1  2  -23  -1  880.14  574.65  109.78  o
  1  2  23  0  2020.64  1838.51  185.29  o
  1  2  -23  0  2031.57  2304.28  166.86  o
  1  2  23  1  195.37  82.86  86.67  <
  1  2  -23  1  192.91  348.38  99.68  o
  2  2  23  -2  65.62  24.48  65.91  <
  2  2  -23  -2  63.34  -20.71  60.26  <
  2  2  23  -1  44.81  20.71  73.44  <
  2  2  -23  -1  39.94  7.53  75.32  <
  2  2  23  0  7413.84  8474.87  435.82  o
  2  2  -23  0  7461.71  7998.11  297.26  o
  2  2  23  1  3437.66  3578.74  231.59  o
  2  2  -23  1  3451.86  3229.59  199.18  o
  3  2  23  -2  70.08  24.48  84.74  <
  3  2  -23  -2  70.16  71.55  75.32  <
  3  2  23  -1  500.53  335.28  107.52  o
  3  2  -23  -1  468.30  501.02  103.55  o
  3  2  23  0  1488.92  1377.87  232.02  o
  3  2  -23  0  1448.28  1745.37  199.14  o
  3  2  23  1  132.80  96.04  94.16  <
  3  2  -23  1  130.21  120.52  103.57  <
  4  2  23  -2  5.65  18.83  80.96  <
  4  2  -23  -2  5.61  1.88  69.67  <
  4  2  23  -1  88.86  -7.53  79.09  <
  4  2  -23  -1  88.31  -16.95  84.74  <
  4  2  23  0  17.51  -39.54  84.73  <
  4  2  -23  0  20.71  30.13  97.91  <
  5  2  23  -2  49.67  39.54  80.97  <
  5  2  -23  -2  57.07  37.66  80.97  <
  5  2  23  -1  318.42  374.78  122.37  o
  5  2  -23  -1  337.64  160.08  99.92  <
  5  2  23  0  365.13  276.86  113.07  <
  5  2  -23  0  417.17  227.90  101.85  <
  6  2  23  -2  73.20  80.97  99.80  <
  6  2  -23  -2  80.32  82.85  92.27  <
  1  3  23  -2  14.85  -5.65  82.85  <
  1  3  -23  -2  12.80  20.71  75.32  <
  1  3  23  -1  293.79  214.69  131.87  <
  1  3  -23  -1  270.83  184.56  88.57  <
  2  3  23  -2  48.37  5.65  86.62  <
  2  3  -23  -2  51.24  15.06  75.32  <
  2  3  23  -1  123.63  1.88  77.22  <
  2  3  -23  -1  125.87  180.77  101.66  <
  3  3  23  -2  1.93  -48.96  80.96  <
  3  3  -23  -2  2.42  -20.71  80.96  <
  4  3  23  -2  1.52  -80.96  80.95  <
  4  3  -23  -2  1.04  67.78  90.37  <
  0  0  24  0  3990.38  4103.38  434.04  o
  0  0  -24  0  4117.13  4711.86  447.87  o
  0  0  24  1  217.82  178.90  120.54  <
  0  0  -24  1  205.02  71.56  103.61  <
  0  0  24  2  83.93  -11.30  90.39  <
  0  0  -24  2  79.59  -18.83  96.04  <
  1  0  24  1  637.65  864.65  123.94  o
  1  0  -24  1  649.90  565.13  107.50  o
  1  0  24  2  98.78  96.03  73.44  <
  1  0  -24  2  96.33  45.19  73.45  <
  2  0  24  0  2211.98  2547.86  242.38  o
  2  0  -24  0  2202.82  2155.57  243.39  o
  2  0  24  1  166.75  184.54  82.85  <
  2  0  -24  1  169.88  48.96  67.83  <
  2  0  24  2  1.08  -1.88  65.90  <
  2  0  -24  2  0.66  32.01  75.31  <
  3  0  24  1  780.03  1107.76  138.79  o
  3  0  -24  1  776.88  659.38  113.23  o
  3  0  24  2  96.30  35.78  69.68  <
  3  0  -24  2  96.62  60.26  79.10  <
  4  0  24  0  9286.91  10163.20  478.53  o
  4  0  -24  0  9119.95  9136.69  665.15  o
  4  0  24  1  807.43  536.93  104.05  o
  4  0  -24  1  827.98  710.27  117.01  o
  4  0  24  2  54.63  -24.48  75.32  <
  4  0  -24  2  53.79  7.53  73.44  <
  5  0  24  1  664.88  534.99  122.61  o
  5  0  -24  1  643.38  580.20  128.17  o
  0  1  24  -2  35.66  -18.83  90.38  <
  0  1  -24  -2  45.37  -101.68  84.71  <
  0  1  24  -1  797.24  985.32  191.93  o
  0  1  -24  -1  862.68  917.54  184.57  o
  0  1  24  0  1545.34  1579.62  218.59  o
  0  1  -24  0  1227.71  1174.08  201.73  o
  0  1  24  1  1624.39  2305.46  234.03  o
  0  1  -24  1  1693.79  2126.48  240.35  o
  0  1  24  2  26.41  71.55  103.55  <
  0  1  -24  2  34.61  7.53  107.33  <
  1  1  24  -2  17.99  54.60  69.66  <
  1  1  -24  -2  18.03  37.66  67.78  <
  1  1  24  -1  11.28  37.66  65.90  <
  1  1  -24  -1  17.13  -20.71  64.02  <
  1  1  24  0  65.64  18.83  71.56  <
  1  1  -24  0  71.13  64.02  73.44  <
  1  1  24  1  53.11  92.26  75.31  <
  1  1  -24  1  47.86  47.07  75.32  <
  1  1  24  2  35.81  30.13  84.73  <
  1  1  -24  2  36.00  35.78  69.67  <
  2  1  24  -2  13.72  96.03  71.53  <
  2  1  -24  -2  13.50  67.78  71.54  <
  2  1  24  -1  3.83  26.36  65.90  <
  2  1  -24  -1  3.91  33.89  67.78  <
  2  1  24  0  263.13  263.65  84.75  o
  2  1  -24  0  273.45  303.20  90.37  o
  2  1  24  1  8.34  -24.48  79.08  <
  2  1  -24  1  8.44  -20.71  73.43  <
  2  1  24  2  8.96  67.78  82.84  <
  2  1  -24  2  8.70  48.96  77.19  <
  3  1  24  -2  4.29  39.54  69.66  <
  3  1  -24  -2  4.19  60.25  71.54  <
  3  1  24  -1  221.38  252.35  88.49  <
  3  1  -24  -1  222.63  143.12  82.90  <
  3  1  24  0  13.95  -116.74  80.93  <
  3  1  -24  0  23.44  -67.79  65.89  <
  3  1  24  1  93.67  48.96  94.16  <
  3  1  -24  1  101.27  135.58  80.96  <
  4  1  24  -2  25.17  126.16  75.28  <
  4  1  -24  -2  22.89  3.77  73.43  <
  4  1  24  -1  621.36  849.56  150.38  o
  4  1  -24  -1  628.53  681.91  116.71  o
  4  1  24  0  15256.30  16992.90  662.40  o
  4  1  -24  0  15355.80  16371.70  515.09  o
  5  1  24  -2  31.05  -20.71  84.73  <
  5  1  -24  -2  32.53  -3.77  73.44  <
  0  2  24  -2  113.97  173.24  114.84  <
  0  2  -24  -2  98.20  120.51  116.74  <
  0  2  24  -1  304.14  436.92  154.34  <
  0  2  -24  -1  319.49  276.85  135.62  <
  1  2  24  -2  71.45  54.61  71.56  <
  1  2  -24  -2  70.87  -1.88  69.68  <
  1  2  24  -1  844.19  1011.72  135.34  o
  1  2  -24  -1  840.35  842.16  124.34  o
  2  2  24  -2  0.98  54.60  75.31  <
  2  2  -24  -2  1.30  41.42  73.43  <
  2  2  24  -1  36.24  22.60  88.50  <
  2  2  -24  -1  35.74  -71.55  67.77  <
  3  2  24  -2  45.81  5.65  73.44  <
  3  2  -24  -2  44.56  15.06  69.67  <
  4  2  24  -2  126.84  303.17  111.00  <
  4  2  -24  -2  134.51  286.23  111.01  <
loop_
 _restr_distance_atom_site_label_1
 _restr_distance_atom_site_label_2
 _restr_distance_target
 _restr_distance_target_weight_param
  P2  O16  1.51  0.003
loop_
 _jana_atom_site_displace_legendre_atom_site_label
 _jana_atom_site_displace_legendre_axis
 _jana_atom_site_displace_legendre_param_order
 _jana_atom_site_displace_legendre_param_coeff
  Na1  x  1  -0.0040(5)
  Na1  y  1  -0.0125(8)
  Na1  z  1  0.0033(4)
  Na1  x  2  -0.0043(3)
  Na1  y  2  0.0583(11)
  Na1  z  2  0.0024(3)
  O6  x  1  -0.0043(7)
  O6  y  1  -0.0015(13)
  O6  z  1  -0.0023(5)
  O6  x  2  -0.0014(7)
  O6  y  2  -0.0512(16)
  O6  z  2  -0.0009(5)
  O12  x  1  -0.0016(6)
  O12  y  1  -0.0188(14)
  O12  z  1  0.0017(5)
  O12  x  2  0.0009(8)
  O12  y  2  0.0109(15)
  O12  z  2  0.0020(6)
  O16  x  1  0.0052(3)
  O16  y  1  -0.0164(15)
  O16  z  1  0.0074(5)
  O16  x  2  0.0212(4)
  O16  y  2  -0.0736(17)
  O16  z  2  0.0038(6)
loop_
 _publcif_info_datablock.id
 _publcif_info_datablock.publ_exptl
 _publcif_info_datablock.publ_geom
 _publcif_info_datablock.structure
  {00284c8f-d7e6-4a49-bdb7-af5c5bf308b3}  ?  ?  ?
  {20416844-8128-4e14-96f5-98bab98ecc3e}  y  y  y
loop_
 _publcif_info_exptl_table_extra_item
  sin_theta_over_lambda_max
loop_
 _publcif_info_tables.block_id
 _publcif_info_tables.reference_item
  {00284c8f-d7e6-4a49-bdb7-af5c5bf308b3}
  '_publcif_info_datablock.publ_exptl'
