# generated using pymatgen
data_4516500
loop_
 _publ_author_name
  'Kole, Goutam Kumar'
  'Chanthapally, Anjana'
  'Tan, Geok Kheng'
  'Vittal, Jagadese J.'
_publ_section_title
;
Solid State Packing and Photoreactivity of Alkali Metal Salts
oftrans,trans-Muconate
;
_journal_issue   11
_journal_name_full   'Crystal Growth &amp; Design'
_journal_page_first   5555
_journal_paper_doi   10.1021/acs.cgd.5b01213
_journal_volume   15
_journal_year   2015
_chemical_formula_sum   'C6 H4 Li2 O4'
_chemical_formula_weight   153.97
_space_group_crystal_system   monoclinic
_space_group_IT_number   14
_space_group_name_Hall   '-P 2ybc'
_space_group_name_H-M_alt   'P 1 21/c 1'
_atom_sites_solution_hydrogens   geom
_audit_creation_method   SHELXL-2014/6
_cell_angle_alpha   90
_cell_angle_beta   115.232(3)
_cell_angle_gamma   90
_cell_formula_units_Z   2
_cell_length_a   7.7630(10)
_cell_length_b   5.0161(6)
_cell_length_c   8.7526(11)
_cell_measurement_reflns_used   844
_cell_measurement_temperature   100(2)
_cell_measurement_theta_max   27.44
_cell_measurement_theta_min   2.90
_cell_volume   308.31(7)
_computing_cell_refinement   'Bruker SMART'
_computing_data_collection   'Bruker SMART'
_computing_data_reduction   'Bruker SAINT'
_computing_molecular_graphics   'Bruker SHELXTL'
_computing_publication_material   'Bruker SHELXTL'
_computing_structure_refinement   'SHELXL-2014/6 (Sheldrick, 2014)'
_computing_structure_solution   'Bruker SHELXTL'
_diffrn_ambient_temperature   100(2)
_diffrn_measured_fraction_theta_full   1.000
_diffrn_measured_fraction_theta_max   1.000
_diffrn_measurement_device_type   'CCD area detector'
_diffrn_measurement_method   'phi and omega scans'
_diffrn_radiation_type   MoK\a
_diffrn_radiation_wavelength   0.71073
_diffrn_reflns_av_R_equivalents   0.0217
_diffrn_reflns_av_unetI/netI   0.0251
_diffrn_reflns_Laue_measured_fraction_full   1.000
_diffrn_reflns_Laue_measured_fraction_max   1.000
_diffrn_reflns_limit_h_max   10
_diffrn_reflns_limit_h_min   -9
_diffrn_reflns_limit_k_max   6
_diffrn_reflns_limit_k_min   -6
_diffrn_reflns_limit_l_max   8
_diffrn_reflns_limit_l_min   -11
_diffrn_reflns_number   2037
_diffrn_reflns_point_group_measured_fraction_full   1.000
_diffrn_reflns_point_group_measured_fraction_max   1.000
_diffrn_reflns_theta_full   25.242
_diffrn_reflns_theta_max   27.479
_diffrn_reflns_theta_min   2.901
_exptl_absorpt_coefficient_mu   0.134
_exptl_absorpt_correction_T_max   0.6468
_exptl_absorpt_correction_T_min   0.5278
_exptl_absorpt_correction_type   multi-scan
_exptl_absorpt_process_details   'SADABS (Sheldrick, 2011)'
_exptl_crystal_colour   Colourless
_exptl_crystal_density_diffrn   1.659
_exptl_crystal_density_meas   ?
_exptl_crystal_density_method   'not measured'
_exptl_crystal_description   BLOCK
_exptl_crystal_F_000   156
_exptl_crystal_size_max   0.300
_exptl_crystal_size_mid   0.100
_exptl_crystal_size_min   0.040
_refine_diff_density_max   0.430
_refine_diff_density_min   -0.244
_refine_diff_density_rms   0.068
_refine_ls_extinction_method   none
_refine_ls_goodness_of_fit_ref   1.068
_refine_ls_hydrogen_treatment   constr
_refine_ls_matrix_type   full
_refine_ls_number_parameters   55
_refine_ls_number_reflns   708
_refine_ls_number_restraints   0
_refine_ls_restrained_S_all   1.068
_refine_ls_R_factor_all   0.0439
_refine_ls_R_factor_gt   0.0392
_refine_ls_shift/su_max   0.000
_refine_ls_shift/su_mean   0.000
_refine_ls_structure_factor_coef   Fsqd
_refine_ls_weighting_details
'w=1/[\s^2^(Fo^2^)+(0.0675P)^2^+0.0959P] where P=(Fo^2^+2Fc^2^)/3'
_refine_ls_weighting_scheme   calc
_refine_ls_wR_factor_gt   0.1045
_refine_ls_wR_factor_ref   0.1094
_reflns_Friedel_coverage   0.000
_reflns_number_gt   634
_reflns_number_total   708
_reflns_threshold_expression   'I > 2\s(I)'
_cod_data_source_file   cg5b01213_si_003.cif
_cod_data_source_block   b596
_cod_depositor_comments
;
The following automatic conversions were performed: data item
'_exptl_absorpt_correction_type' value 'Multi-scan' was changed to
'multi-scan' in accordance with the /home/saulius/struct/COD-crude-
data/automatic-downloads/DataCite-
retrospective/ACS/depositions/lib/dictionaries/cif_core.dic dictionary
named 'cif_core.dic' version 2.4.2 last updated on 2011-04-26. data
item '_exptl_crystal_density_meas' value 'Not Measured' was changed to
'?' -- the value is perceived as not measured. Automatic conversion
script Id: cif_fix_values 6909 2019-04-08 15:41:33Z antanas
;
_cod_original_sg_symbol_H-M   'P 21/c'
_cod_database_code   4516500
_shelx_space_group_comment
;
The symmetry employed for this shelxl refinement is uniquely defined
by the following loop, which should always be used as a source of
symmetry information in preference to the above space-group names.
They are only intended as comments.
;
_shelx_estimated_absorpt_t_min   0.961
_shelx_estimated_absorpt_t_max   0.995
_exptl_absorpt_special_details   ?
_shelxl_version_number   2014/6
_shelx_res_file
;
TITL b596 in P2(1)/c  CELL 0.71073   7.7630   5.0161   8.7526  90.000
115.232  90.000  ZERR    2.00   0.0010   0.0006   0.0011   0.000
0.003   0.000  LATT 1  SYMM -X, 0.5+Y, 0.5-Z  SFAC C  H  Li O  UNIT 12
8 4 8  TEMP -173  SIZE 0.30 0.10 0.04  OMIT  -1.00  55.00  ACTA  L.S.
8  WGHT    0.067500    0.095900  FVAR       0.35298  LI1   3
0.510256    0.401363    0.152764    11.00000    0.02229    0.01312 =
0.02003   -0.00104    0.01391   -0.00187  O1    4    0.378630
0.544001    0.276461    11.00000    0.01622    0.01261 =
0.01686    0.00016    0.01097   -0.00041  O2    4    0.346590
0.170932    0.401735    11.00000    0.01645    0.01059 =
0.01741    0.00119    0.01033    0.00165  C1    1    0.307677
0.411283    0.359869    11.00000    0.01062    0.01300 =
0.01163   -0.00161    0.00559   -0.00076  C2    1    0.172517
0.555854    0.410550    11.00000    0.01417    0.01068 =
0.01657   -0.00041    0.00870    0.00154  AFIX  43  H2    2
0.160378    0.743570    0.395351    11.00000   -1.20000  AFIX   0  C3
1    0.067516    0.431185    0.476711    11.00000    0.01409
0.01244 =           0.01527   -0.00002    0.00857    0.00164  AFIX  43
H3    2    0.082094    0.244013    0.493952    11.00000   -1.20000
AFIX   0  HKLF 4  REM  b596 in P2(1)/c  REM R1 =  0.0392 for     634
Fo > 4sig(Fo)  and  0.0439 for all     708 data  REM     55 parameters
refined using      0 restraints  END  WGHT      0.0675      0.0959
REM Highest difference peak  0.430,  deepest hole -0.244,  1-sigma
level  0.068  Q1    1   0.2349  0.4904  0.3860  11.00000  0.05    0.43
Q2    1   0.0000  0.5000  0.5000  10.50000  0.05    0.38  Q3    1
0.1354  0.4924  0.4658  11.00000  0.05    0.36  Q4    1   0.4392
0.5044  0.2188  11.00000  0.05    0.33  Q5    1   0.2841  0.2089
0.3136  11.00000  0.05    0.21  Q6    1   0.4141  0.0748  0.3840
11.00000  0.05    0.20  Q7    1   0.4392  0.1703  0.5170  11.00000
0.05    0.20  Q8    1   0.4722  0.5617  0.3187  11.00000  0.05    0.19
Q9    1   0.3840  0.2957  0.4360  11.00000  0.05    0.19  Q10   1
0.4537  0.1422  0.4477  11.00000  0.05    0.18  Q11   1   0.2585
0.5449  0.2259  11.00000  0.05    0.18  Q12   1   0.3879  0.6966
0.2932  11.00000  0.05    0.17  Q13   1   0.0116  0.2872  0.4277
11.00000  0.05    0.14  Q14   1   0.0633  0.7874  0.2759  11.00000
0.05    0.12  Q15   1   0.1153  0.6541  0.3398  11.00000  0.05    0.11
Q16   1   0.4576  0.5121  0.3989  11.00000  0.05    0.10  Q17   1
0.4641  0.5707  0.1143  11.00000  0.05    0.10  Q18   1   0.1695
0.2140  0.5742  11.00000  0.05    0.09  Q19   1   0.2538  0.6417
0.3262  11.00000  0.05    0.09  Q20   1   0.0877  0.7588  0.2013
11.00000  0.05    0.09
;
_shelx_res_checksum   54857
_shelx_hkl_file
;
1   0   0   56.90    1.29    -1   0   0   65.02    1.39    -1   0   0
64.10    1.40    -2   0   0   14.79    0.38     2   0   0   11.54
0.35    -2   0   0   15.34    0.40    -3   0   0   99.88    2.27    -3
0   0   99.49    2.28    -4   0   0   92.53    2.17    -4   0   0
93.22    2.18    -5   0   0    1.74    0.19     5   0   0    1.01
0.13    -5   0   0    1.29    0.15    -6   0   0   22.41    0.70     6
0   0   20.72    0.66    -6   0   0   22.68    0.73    -7   0   0
21.71    0.71     7   0   0   20.89    0.67    -7   0   0   20.83
0.76    -8   0   0    2.88    0.32     8   0   0    2.48    0.24     9
0   0    7.50    0.41    -9   0   0    8.10    0.49     0   1   0
-0.12    0.03    -1  -1   0   48.72    1.19    -1  -1   0   52.31
1.15     1   1   0   51.13    1.07    -1   1   0   51.02    1.10    -2
-1   0   39.48    0.99     2  -1   0   39.95    0.88     2  -1   0
41.32    0.93    -2  -1   0   40.82    0.95     2   1   0   40.20
0.88    -2   1   0   39.92    0.99     3  -1   0    1.35    0.12    -3
-1   0    1.42    0.13    -3  -1   0    1.40    0.12    -3   1   0
1.45    0.15     3   1   0    1.64    0.11     4  -1   0   66.47
1.53    -4  -1   0   65.82    1.58    -4   1   0   65.19    1.64     4
1   0   66.12    1.46     5  -1   0    2.00    0.18    -5  -1   0
1.84    0.18    -5   1   0    1.55    0.20     5   1   0    2.17
0.16     6  -1   0    0.04    0.06    -6  -1   0   -0.02    0.07    -6
-1   0   -0.06    0.08     6   1   0    0.06    0.06    -6   1   0
0.13    0.11    -7  -1   0    2.40    0.25    -7  -1   0    2.55
0.24     7  -1   0    1.93    0.21     7   1   0    1.93    0.19    -7
1   0    2.07    0.27     8  -1   0    3.51    0.30    -8  -1   0
3.43    0.31    -8  -1   0    4.08    0.31     9  -1   0    0.24
0.14     0   2   0  136.43    2.84    -1  -2   0    0.13    0.05     1
2   0    0.09    0.04    -2  -2   0    0.56    0.08     2  -2   0
0.62    0.09    -2  -2   0    0.47    0.09     2  -2   0    0.67
0.11     2   2   0    0.49    0.06    -3  -2   0    0.60    0.10     3
-2   0    0.69    0.12     3  -2   0    0.54    0.10    -3  -2   0
0.58    0.11     3   2   0    0.67    0.08    -4  -2   0    3.41
0.21    -4  -2   0    2.89    0.22     4  -2   0    3.17    0.20     4
2   0    3.23    0.17    -5  -2   0    2.09    0.22    -5  -2   0
1.85    0.18     5  -2   0    1.97    0.20     5   2   0    1.93
0.15     6  -2   0    0.16    0.09    -6  -2   0    0.23    0.11    -6
-2   0    0.13    0.10     6   2   0    0.21    0.09     7  -2   0
0.25    0.11    -7  -2   0    0.36    0.14     8  -2   0    0.56
0.18    -8  -2   0    0.41    0.16     0   3   0    0.04    0.05    -1
-3   0    1.43    0.13    -1   3   0    1.35    0.13     1   3   0
1.41    0.12    -2  -3   0    4.78    0.23     2  -3   0    4.88
0.25    -2  -3   0    4.39    0.26     2  -3   0    4.88    0.26     2
3   0    4.93    0.20     3  -3   0    2.20    0.18    -3  -3   0
1.73    0.19     3  -3   0    2.12    0.20    -3  -3   0    2.18
0.17     3   3   0    2.29    0.14     4  -3   0   42.77    1.13    -4
-3   0   40.73    1.20    -4  -3   0   40.67    1.09     4   3   0
42.78    0.98    -5  -3   0   11.87    0.46    -5  -3   0   11.38
0.53     5  -3   0   12.62    0.51     6  -3   0    5.46    0.35    -6
-3   0    5.79    0.38    -7  -3   0    1.57    0.25     7  -3   0
1.60    0.25    -8  -3   0    0.15    0.16     8  -3   0    0.23
0.16     0  -4   0    2.50    0.19     0   4   0    3.00    0.19    -1
-4   0    2.38    0.19    -1   4   0    2.69    0.19     1   4   0
2.92    0.18    -2  -4   0   -0.01    0.07     2  -4   0    0.14
0.08     2  -4   0   -0.04    0.05    -2  -4   0    0.02    0.08     2
4   0    0.04    0.06     3  -4   0    1.28    0.18     3  -4   0
1.14    0.16    -3  -4   0    1.42    0.16    -3  -4   0    1.11
0.19     4  -4   0    1.88    0.22    -4  -4   0    2.56    0.27     5
-4   0    9.08    0.45    -5  -4   0    8.50    0.49     6  -4   0
2.36    0.28    -6  -4   0    2.40    0.33    -7  -4   0   -0.01
0.16     7  -4   0    0.47    0.15     0  -5   0    0.04    0.08     0
5   0   -0.02    0.06     1  -5   0   14.44    0.52     1  -5   0
14.43    0.53    -1  -5   0   14.63    0.61    -1  -5   0   14.42
0.54     2  -5   0   11.02    0.48     2  -5   0   11.61    0.47    -2
-5   0   11.27    0.53     3  -5   0    0.50    0.13    -3  -5   0
0.69    0.17     3  -5   0    0.75    0.16     4  -5   0    6.22
0.38    -4  -5   0    6.13    0.42    -5  -5   0   20.90    0.89     5
-5   0   20.78    0.79     0  -6   0    6.45    0.40     1  -6   0
2.51    0.28    -1  -6   0    1.55    0.24    -2  -6   0    0.58
0.16     2  -6   0    0.27    0.12     2  -6   0    0.42    0.13    -3
-6   0    1.86    0.27     3  -6   0    2.17    0.26     9   0  -1
-0.12    0.08     8   0  -1    0.00    0.09    -7   0   1    0.03
0.09    -7   0   1    0.20    0.11     7   0  -1   -0.03    0.06    -6
0   1   -0.03    0.09     6   0  -1    0.00    0.06    -6   0   1
0.10    0.09     5   0  -1    0.04    0.06    -5   0   1    0.03
0.08    -5   0   1    0.09    0.08    -4   0   1   -0.03    0.03     4
0  -1    0.03    0.05    -4   0   1   -0.01    0.06     3   0  -1
0.03    0.04    -3   0   1   -0.01    0.04    -3   0   1   -0.01
0.05    -2   0   1   -0.05    0.05     2   0  -1    0.02    0.04     1
0  -1   -0.14    0.02     0   0  -1   -0.01    0.01     0   0  -1
-0.01    0.01    -1   0  -1   -0.01    0.05    -1   0  -1   -0.05
0.02    -1   0  -1   -0.07    0.03    -2   0  -1   -0.03    0.04     2
0   1    0.07    0.04    -2   0  -1   -0.10    0.05    -3   0  -1
0.03    0.05    -3   0  -1   -0.04    0.06     3   0   1    0.10
0.05    -4   0  -1   -0.06    0.07    -4   0  -1    0.03    0.06     4
0   1    0.00    0.05    -5   0  -1    0.02    0.09    -5   0  -1
0.02    0.08     5   0   1   -0.06    0.05    -6   0  -1   -0.07
0.09     6   0   1    0.03    0.06    -6   0  -1    0.16    0.09     7
0   1   -0.02    0.07    -7   0  -1    0.09    0.11     8   0   1
0.03    0.09    -8   0  -1    0.12    0.12    -9  -1   1    2.10
0.28     9  -1  -1    2.48    0.29     8  -1  -1   24.43    0.81     8
1  -1   25.54    0.78     7  -1  -1    1.00    0.17    -7  -1   1
0.96    0.17    -7  -1   1    1.42    0.19     7   1  -1    0.82
0.14    -6  -1   1    9.16    0.42     6  -1  -1    9.20    0.40    -6
-1   1    9.63    0.39     6   1  -1    9.07    0.36    -5  -1   1
8.40    0.34     5  -1  -1    8.62    0.35    -5  -1   1    8.44
0.36     5   1  -1    8.57    0.33     4  -1  -1    1.42    0.14    -4
-1   1    1.41    0.13    -4  -1   1    1.15    0.14     4   1  -1
1.18    0.12     3  -1  -1   24.37    0.63    -3  -1   1   24.79
0.61    -3  -1   1   24.12    0.68     3   1  -1   23.91    0.60    -2
-1   1   16.78    0.40     2  -1  -1   16.65    0.44    -2  -1   1
16.18    0.47     2   1  -1   16.02    0.42     1  -1  -1    5.20
0.16    -1  -1   1    4.83    0.18     0  -1  -1  139.14    3.05     0
-1  -1  140.29    2.86     0  -1   1  137.59    3.06     0   1  -1
139.40    3.03     0   1  -1  136.15    2.86    -1  -1  -1  368.78
8.06    -1   1  -1  377.79    7.58    -2  -1  -1   34.17    0.87     2
-1   1   34.71    0.79     2  -1   1   35.26    0.83    -2   1  -1
33.81    0.89     2   1   1   34.31    0.75    -3  -1  -1    3.17
0.18     3  -1   1    3.02    0.18     3  -1   1    2.80    0.17    -3
-1  -1    2.99    0.19    -3   1  -1    2.80    0.20     3   1   1
3.18    0.14    -4  -1  -1    1.16    0.15     4  -1   1    1.14
0.14    -4  -1  -1    1.17    0.14     4   1   1    1.45    0.12    -4
1  -1    1.38    0.17    -5  -1  -1    5.47    0.29     5  -1   1
5.11    0.27    -5  -1  -1    5.10    0.30    -5   1  -1    4.63
0.31     5   1   1    5.30    0.24     6  -1   1    0.76    0.14    -6
-1  -1    0.96    0.16    -6  -1  -1    0.91    0.17    -6   1  -1
0.89    0.19     6   1   1    0.87    0.13    -7  -1  -1   -0.05
0.11    -7  -1  -1    0.25    0.12     7  -1   1    0.00    0.07    -7
1  -1    0.15    0.13     8  -1   1    1.73    0.23    -8  -1  -1
2.34    0.29    -8   1  -1    1.92    0.29     9  -2  -1    2.30
0.31    -9  -2   1    3.16    0.34    -8  -2   1    1.28    0.23     8
-2  -1    1.52    0.24    -7  -2   1    1.85    0.23     7  -2  -1
1.37    0.21     7   2  -1    1.56    0.17     6  -2  -1    3.84
0.27    -6  -2   1    4.30    0.25    -6  -2   1    4.57    0.31     6
2  -1    4.23    0.24    -5  -2   1    0.16    0.10    -5  -2   1
0.50    0.11     5  -2  -1    0.33    0.10     5   2  -1    0.26
0.09     4  -2  -1   79.03    1.85    -4  -2   1   78.41    2.00    -4
-2   1   84.17    1.86     4   2  -1   81.46    1.78    -3  -2   1
4.64    0.19     3  -2  -1    4.60    0.22    -3  -2   1    4.43
0.24     3   2  -1    4.77    0.20     2  -2  -1   32.02    0.78    -2
-2   1   31.82    0.75    -2  -2   1   31.22    0.84     2   2  -1
31.26    0.75    -1  -2   1    1.98    0.13     1  -2  -1    1.99
0.12     1  -2  -1    2.10    0.11     1   2  -1    2.15    0.13     0
-2  -1   16.24    0.47     0   2   1   16.50    0.39     0   2  -1
15.41    0.45    -1  -2  -1   22.19    0.62    -1   2  -1   22.81
0.60     1   2   1   22.64    0.51    -2  -2  -1    2.47    0.17    -2
-2  -1    2.66    0.18    -2   2  -1    2.67    0.17     2   2   1
2.66    0.11     3  -2   1    7.79    0.33     3  -2   1    8.11
0.34    -3  -2  -1    8.06    0.35    -3  -2  -1    7.65    0.32     3
2   1    8.21    0.25    -3   2  -1    7.94    0.37    -4  -2  -1
4.78    0.28    -4  -2  -1    4.88    0.28     4  -2   1    5.18
0.28    -4   2  -1    5.25    0.32     4   2   1    5.17    0.21    -5
-2  -1   72.38    1.85    -5  -2  -1   69.29    1.77     5  -2   1
71.29    1.73    -5   2  -1   70.18    1.88    -6  -2  -1    2.00
0.23     6  -2   1    1.76    0.22    -7  -2  -1    2.37    0.27    -7
-2  -1    2.20    0.26     7  -2   1    2.42    0.27     8  -2   1
2.90    0.32    -8  -2  -1    2.77    0.31    -8  -3   1    0.10
0.15     8  -3  -1    0.24    0.15     7  -3  -1    3.91    0.34    -7
-3   1    3.43    0.34    -6  -3   1    0.17    0.12     6  -3  -1
0.05    0.09    -5  -3   1    9.97    0.49     5  -3  -1   10.14
0.45     5   3  -1   10.21    0.37    -4  -3   1    9.77    0.45    -4
-3   1   10.28    0.36     4  -3  -1    9.12    0.40     4   3  -1
9.98    0.35    -3  -3   1    0.25    0.09     3  -3  -1    0.22
0.07    -3  -3   1    0.34    0.08     3   3  -1    0.38    0.09    -2
-3   1   14.20    0.52     2  -3  -1   15.28    0.47    -2  -3   1
15.24    0.44     2  -3  -1   15.55    0.47     2   3  -1   15.32
0.45     1  -3  -1   53.14    1.22    -1  -3   1   53.37    1.28     1
-3  -1   51.20    1.16    -1  -3   1   53.23    1.35     1   3  -1
54.96    1.24     0  -3  -1   61.32    1.51     0   3   1   61.28
1.36     0   3  -1   63.33    1.44    -1  -3  -1   16.23    0.52     1
3   1   16.41    0.42    -1   3  -1   16.39    0.52    -2  -3  -1
30.86    0.88     2   3   1   32.25    0.72    -2   3  -1   31.91
0.87    -3  -3  -1   18.90    0.61     3  -3   1   20.59    0.66    -3
-3  -1   19.19    0.67    -4  -3  -1    4.41    0.30    -4  -3  -1
4.38    0.28     4  -3   1    4.34    0.28     4  -3   1    4.30
0.29    -5  -3  -1    6.28    0.38    -5  -3  -1    5.95    0.33     5
-3   1    6.08    0.35     6  -3   1   15.57    0.64    -6  -3  -1
15.32    0.68    -7  -3  -1    4.03    0.37     7  -3   1    3.30
0.34    -7  -4   1    0.33    0.18     7  -4  -1    0.00    0.10    -6
-4   1    2.01    0.28     6  -4  -1    1.86    0.25     5  -4  -1
9.54    0.46    -5  -4   1    9.60    0.51     4  -4  -1   64.09
1.61    -4  -4   1   64.91    1.78    -3  -4   1   13.17    0.55     3
-4  -1   12.23    0.47     3   4  -1   12.68    0.44     2  -4  -1
7.77    0.34    -2  -4   1    7.90    0.32     2  -4  -1    7.87
0.33    -2  -4   1    7.68    0.38     2   4  -1    8.03    0.33    -1
-4   1    4.26    0.26    -1  -4   1    3.93    0.22     1  -4  -1
4.20    0.22     1  -4  -1    4.02    0.22     1   4  -1    4.17
0.24     0  -4  -1    0.20    0.09     0  -4  -1    0.16    0.06     0
-4  -1    0.04    0.05     0   4  -1    0.07    0.07    -1  -4  -1
5.77    0.30     1   4   1    5.97    0.24    -1   4  -1    6.14
0.31    -2  -4  -1    4.11    0.30    -2  -4  -1    4.49    0.26    -2
4  -1    4.70    0.28     3  -4   1    0.19    0.09    -3  -4  -1
0.12    0.09    -3  -4  -1    0.13    0.09     3  -4   1    0.20
0.10     4  -4   1    9.52    0.47    -4  -4  -1    9.05    0.48     4
-4   1    8.59    0.43    -4  -4  -1    9.45    0.41     5  -4   1
19.43    0.74    -5  -4  -1   19.98    0.81    -6  -4  -1    0.84
0.22     6  -4   1    0.54    0.16    -6  -5   1    1.25    0.26     6
-5  -1    1.44    0.24     5  -5  -1    0.01    0.10    -5  -5   1
0.14    0.11    -4  -5   1   10.01    0.54     4  -5  -1   10.67
0.48    -3  -5   1   11.63    0.56     3  -5  -1   11.50    0.49    -2
-5   1    0.29    0.12     2  -5  -1    0.23    0.09    -1  -5   1
1.53    0.18    -1  -5   1    1.60    0.20     1  -5  -1    1.59
0.16     1  -5  -1    1.57    0.22     1  -5  -1    1.56    0.17     1
5  -1    1.55    0.17     0  -5   1    7.81    0.40     0  -5  -1
8.16    0.41     0   5  -1    7.81    0.37    -1  -5  -1    5.01
0.31    -1   5  -1    5.21    0.31     2  -5   1    4.14    0.28    -2
-5  -1    4.39    0.29    -2  -5  -1    3.75    0.31     2  -5   1
4.48    0.31     3  -5   1    2.83    0.26     3  -5   1    3.20
0.30    -3  -5  -1    3.03    0.31     4  -5   1    0.58    0.16     4
-5   1    0.37    0.15    -4  -5  -1    0.60    0.20    -5  -5  -1
2.75    0.36     5  -5   1    2.70    0.30    -3  -6   1   -0.10
0.10     3  -6  -1    0.17    0.10    -2  -6   1    0.30    0.13     2
-6  -1    0.45    0.14    -1  -6   1    0.21    0.12     1  -6  -1
0.48    0.16     0  -6   1   10.38    0.50     0  -6  -1   10.39
0.52     1  -6   1    8.50    0.42     1  -6   1    8.45    0.44    -1
-6  -1    8.77    0.49     2  -6   1    0.08    0.09    -2  -6  -1
0.07    0.11     2  -6   1   -0.01    0.10     3  -6   1    0.68
0.16    -3  -6  -1    1.12    0.21     3  -6   1    0.89    0.20     9
0  -2    0.44    0.16     8   0  -2   10.11    0.46     7   0  -2
27.63    0.83     6   0  -2    1.99    0.19    -6   0   2    1.90
0.20    -5   0   2   12.96    0.47     5   0  -2   13.23    0.45    -4
0   2    3.91    0.21     4   0  -2    4.81    0.22     3   0  -2
42.66    0.97    -3   0   2   40.14    1.03     2   0  -2  102.82
2.16     1   0  -2   78.33    1.75     1   0  -2   79.02    1.66     0
0  -2    3.79    0.16     0   0  -2    3.81    0.14    -1   0  -2
973.08   21.35    -1   0  -2 1000.00   19.95    -2   0  -2   35.97
0.85     2   0   2   35.20    0.78    -2   0  -2   35.05    0.92     2
0   2   35.80    0.82    -3   0  -2    0.04    0.08    -3   0  -2
0.08    0.05     3   0   2    0.10    0.05    -4   0  -2   18.81
0.54     4   0   2   18.74    0.54    -4   0  -2   18.75    0.63     5
0   2   46.41    1.13    -5   0  -2   46.09    1.16    -5   0  -2
42.76    1.26    -6   0  -2    0.31    0.14     6   0   2    0.07
0.07    -7   0  -2    6.23    0.41     7   0   2    6.08    0.32    -8
0  -2   11.24    0.58    -9  -1   2    7.15    0.44     9  -1  -2
6.19    0.40     9   1  -2    6.56    0.39     8  -1  -2    4.92
0.33    -8  -1   2    5.04    0.36     8   1  -2    4.56    0.31    -7
-1   2    3.06    0.25     7  -1  -2    2.70    0.24    -7  -1   2
3.02    0.22     7   1  -2    1.92    0.20     6  -1  -2   11.94
0.47    -6  -1   2   11.54    0.49    -6  -1   2   11.75    0.42     5
-1  -2    6.57    0.30    -5  -1   2    6.21    0.26    -5  -1   2
5.73    0.31     4  -1  -2    0.12    0.06    -4  -1   2    0.05
0.07    -4  -1   2    0.09    0.05     4   1  -2   -0.03    0.04    -3
-1   2  254.27    5.81     3  -1  -2  269.46    5.39     3   1  -2
260.88    5.37     2  -1  -2   51.55    1.13    -2  -1   2   50.15
1.22     1  -1  -2    0.00    0.03     1  -1  -2    0.00    0.04    -1
-1   2    0.01    0.04     1   1  -2   -0.03    0.03     1   1  -2
-0.02    0.05     0  -1   2   40.45    0.94     0  -1  -2   42.40
0.88     0  -1  -2   41.03    1.00     0   1   2   41.20    0.87     0
1  -2   41.94    0.97     0   1  -2   40.59    0.94    -1  -1  -2
44.10    1.09    -1   1  -2   45.44    1.09    -1   1  -2   43.92
1.03    -2  -1  -2    1.23    0.12    -2  -1  -2    0.92    0.13    -2
1  -2    1.05    0.12    -2   1  -2    0.91    0.12     2   1   2
1.08    0.07     3  -1   2   19.50    0.57    -3  -1  -2   20.04
0.59    -3  -1  -2   19.22    0.62     3  -1   2   19.63    0.57     3
1   2   19.71    0.49    -3   1  -2   19.22    0.63    -4  -1  -2
16.94    0.59    -4  -1  -2   17.79    0.56     4  -1   2   16.30
0.54    -4   1  -2   16.72    0.61     4   1   2   17.41    0.47     5
-1   2    1.94    0.19    -5  -1  -2    2.19    0.23    -5  -1  -2
2.12    0.20     5   1   2    2.26    0.16    -5   1  -2    1.74
0.23    -6  -1  -2    0.06    0.11    -6  -1  -2    0.21    0.11     6
-1   2    0.09    0.07    -6   1  -2    0.24    0.13    -7  -1  -2
0.25    0.13     7  -1   2    0.04    0.07    -7   1  -2    0.22
0.14     8  -1   2    0.00    0.11    -8  -1  -2    0.25    0.15    -8
1  -2    0.28    0.15     9  -2  -2    1.75    0.28    -9  -2   2
1.81    0.28     8  -2  -2   21.92    0.82    -8  -2   2   22.49
0.85     8   2  -2   22.19    0.73     7  -2  -2    0.17    0.11    -7
-2   2    0.28    0.13     7   2  -2    0.08    0.09    -6  -2   2
0.07    0.10     6  -2  -2    0.14    0.09     6   2  -2    0.09
0.08     5  -2  -2    6.68    0.33    -5  -2   2    7.28    0.26    -5
-2   2    6.63    0.35     5   2  -2    7.07    0.30    -4  -2   2
29.35    0.89    -4  -2   2   30.82    0.72     4  -2  -2   31.68
0.83     4   2  -2   30.50    0.78    -3  -2   2   21.93    0.67     3
-2  -2   22.78    0.61     3   2  -2   21.81    0.59    -2  -2   2
3.38    0.12     2  -2  -2    4.00    0.18    -2  -2   2    3.31
0.19     1  -2  -2   27.76    0.76    -1  -2   2   27.81    0.73     1
-2  -2   29.25    0.66     1   2  -2   27.82    0.71     0  -2  -2
17.52    0.40     0  -2   2   17.40    0.47     0  -2  -2   17.40
0.53     0   2  -2   16.86    0.50    -1  -2  -2   93.21    2.17     1
-2   2   92.36    2.08    -1   2  -2   92.40    2.05    -2  -2  -2
7.49    0.33    -2   2  -2    7.86    0.33    -2   2  -2    7.45
0.34     3  -2   2   10.70    0.43     3  -2   2   10.37    0.41    -3
-2  -2   10.85    0.44    -3  -2  -2   11.57    0.44    -3   2  -2
10.63    0.45     3   2   2   11.21    0.28     4  -2   2    2.31
0.22    -4  -2  -2    1.75    0.21     4  -2   2    2.14    0.20    -4
2  -2    1.69    0.22     5  -2   2    1.80    0.21    -5  -2  -2
1.53    0.21    -5  -2  -2    1.70    0.20    -5   2  -2    1.34
0.22    -6  -2  -2    0.91    0.18     6  -2   2    0.92    0.17    -6
-2  -2    0.68    0.18    -6   2  -2    0.91    0.21    -7  -2  -2
1.39    0.23     7  -2   2    1.51    0.24    -7  -2  -2    1.84
0.25    -7   2  -2    2.27    0.30    -8  -3   2    7.13    0.47     8
-3  -2    6.57    0.42     7  -3  -2    0.12    0.08    -7  -3   2
0.30    0.15    -6  -3   2    1.23    0.20     6  -3  -2    1.02
0.18     6   3  -2    0.97    0.14     5  -3  -2    3.05    0.25    -5
-3   2    2.94    0.26     5   3  -2    2.67    0.20    -4  -3   2
6.16    0.34     4  -3  -2    6.29    0.31     4   3  -2    6.69
0.30    -3  -3   2   91.74    2.25    -3  -3   2   92.92    2.05     3
-3  -2   93.06    2.06     3   3  -2   89.73    2.04    -2  -3   2
16.32    0.54    -2  -3   2   15.83    0.44     2  -3  -2   16.04
0.47     2   3  -2   15.96    0.50     1  -3  -2   10.32    0.41    -1
-3   2   10.42    0.38     1  -3  -2   10.43    0.32     0  -3  -2
1.59    0.16     0  -3  -2    1.62    0.09     0  -3   2    1.70
0.13     0   3  -2    1.85    0.17    -1  -3  -2    0.09    0.08    -1
3  -2    0.05    0.06    -2  -3  -2    0.12    0.10    -2   3  -2
0.08    0.08     3  -3   2    0.19    0.09    -3  -3  -2    0.21
0.10     3  -3   2    0.10    0.07    -3  -3  -2    0.13    0.10     4
-3   2    1.32    0.18     4  -3   2    1.30    0.20    -4  -3  -2
1.22    0.19    -4  -3  -2    1.12    0.18    -5  -3  -2   13.35
0.59    -5  -3  -2   12.66    0.55     5  -3   2   13.60    0.57    -6
-3  -2   10.78    0.52     6  -3   2   10.73    0.53    -6  -3  -2
11.91    0.58     7  -3   2    5.15    0.38    -7  -3  -2    3.84
0.38     7  -4  -2    5.76    0.39    -7  -4   2    5.61    0.44     6
-4  -2    0.35    0.13    -6  -4   2    0.44    0.15     5  -4  -2
2.30    0.24    -5  -4   2    2.13    0.27    -4  -4   2   14.55
0.61     4  -4  -2   14.92    0.55     4   4  -2   15.25    0.51    -3
-4   2    4.39    0.30     3  -4  -2    4.53    0.26     3   4  -2
4.43    0.25    -2  -4   2    4.27    0.21    -2  -4   2    4.04
0.27     2  -4  -2    4.43    0.23     2   4  -2    4.41    0.26    -1
-4   2    5.59    0.29     1  -4  -2    5.84    0.25     1  -4  -2
6.01    0.32     1   4  -2    5.82    0.30     0  -4  -2    1.37
0.18     0  -4   2    1.28    0.15     0   4  -2    1.21    0.16     1
-4   2    0.50    0.11    -1  -4  -2    0.49    0.13    -1   4  -2
0.51    0.13    -2  -4  -2    3.61    0.26    -2   4  -2    3.36
0.25    -3  -4  -2    1.10    0.19     3  -4   2    1.27    0.21    -3
-4  -2    0.96    0.17     3  -4   2    1.02    0.17     4  -4   2
0.25    0.11     4  -4   2    0.30    0.12    -4  -4  -2    0.46
0.15    -4  -4  -2    0.24    0.14    -5  -4  -2    0.42    0.17     5
-4   2    0.44    0.14     6  -4   2    1.26    0.24    -6  -4  -2
2.00    0.30    -6  -5   2    0.39    0.15     6  -5  -2    0.47
0.16    -5  -5   2    1.37    0.23     5  -5  -2    0.81    0.17     4
-5  -2   14.39    0.58    -4  -5   2   14.94    0.66    -3  -5   2
10.54    0.52     3  -5  -2    9.96    0.43     2  -5  -2    0.16
0.10     2  -5  -2    0.19    0.08    -2  -5   2    0.15    0.11     2
5  -2   -0.01    0.07    -1  -5   2    3.49    0.26     1  -5  -2
3.73    0.29     1   5  -2    3.58    0.25     0  -5   2    9.82
0.42     0  -5  -2   10.01    0.48    -1  -5  -2   -0.01    0.09    -1
5  -2    0.16    0.10    -2  -5  -2    5.01    0.33    -2  -5  -2
4.72    0.35    -2   5  -2    4.26    0.31     3  -5   2    5.76
0.39    -3  -5  -2    6.06    0.41     3  -5   2    6.20    0.37    -4
-5  -2    0.81    0.22     4  -5   2    0.91    0.17     4  -5   2
0.82    0.18     3  -6  -2    0.18    0.11    -3  -6   2   -0.05
0.13     2  -6  -2    0.55    0.17    -2  -6   2    0.60    0.17    -1
-6   2    2.20    0.26     1  -6  -2    2.81    0.31     0  -6  -2
0.07    0.12     0   6  -2    0.06    0.10    -1  -6  -2    7.46
0.45    -1   6  -2    5.94    0.38     2  -6   2    4.68    0.36    -2
-6  -2    4.62    0.36     2  -6   2    4.53    0.33     9   0  -3
0.00    0.11     8   0  -3   -0.06    0.08     7   0  -3    0.10
0.08     6   0  -3    0.02    0.07     5   0  -3    0.00    0.07     4
0  -3    0.01    0.05     3   0  -3   -0.08    0.05     2   0  -3
-0.08    0.05     2   0  -3   -0.10    0.04     1   0  -3    0.00
0.04     1   0  -3    0.06    0.05     0   0  -3   -0.02    0.04     0
0  -3   -0.01    0.05    -1   0  -3    0.07    0.07    -1   0  -3
0.00    0.05    -2   0  -3    0.05    0.08    -2   0  -3   -0.05
0.04    -2   0  -3    0.04    0.04     3   0   3    0.07    0.05     3
0   3    0.05    0.05    -3   0  -3    0.09    0.09    -3   0  -3
-0.05    0.05    -4   0  -3   -0.13    0.09    -4   0  -3    0.07
0.06     4   0   3    0.06    0.07    -5   0  -3    0.16    0.11     5
0   3   -0.04    0.05     6   0   3    0.06    0.07    -6   0  -3
0.27    0.14    -7   0  -3    0.10    0.11     9  -1  -3    6.13
0.40    -9  -1   3    5.66    0.41     9   1  -3    7.06    0.40     8
-1  -3    4.19    0.31    -8  -1   3    4.86    0.35     8   1  -3
4.90    0.32    -7  -1   3   44.41    1.31     7  -1  -3   44.59
1.22     7   1  -3   44.88    1.20     6  -1  -3    5.62    0.31    -6
-1   3    5.52    0.33     6   1  -3    5.67    0.30     5  -1  -3
27.89    0.79    -5  -1   3   27.20    0.84     5   1  -3   28.62
0.78     4  -1  -3   19.48    0.57    -4  -1   3   19.19    0.61     4
1  -3   19.29    0.56     3  -1  -3    0.87    0.10    -3  -1   3
0.55    0.10     3   1  -3    0.80    0.11     2  -1  -3   54.32
1.28    -2  -1   3   52.09    1.28     2  -1  -3   52.58    1.18     2
1  -3   52.25    1.21     2   1  -3   54.76    1.19    -1  -1   3
33.97    0.83     1  -1  -3   34.30    0.88     1  -1  -3   34.69
0.78     1   1  -3   35.31    0.82     1   1  -3   34.00    0.83     0
-1  -3    0.61    0.10     0  -1  -3    0.46    0.05     0   1  -3
0.48    0.08     0   1  -3    0.51    0.09    -1  -1  -3    9.05
0.35    -1  -1  -3    8.83    0.23    -1   1  -3    8.86    0.32    -1
1  -3    9.06    0.34    -2  -1  -3  197.41    4.48    -2   1  -3
198.68    4.48     2   1   3  203.21    4.07    -2   1  -3  199.18
4.19    -3  -1  -3   32.02    0.94    -3  -1  -3   32.23    0.88     3
1   3   32.47    0.75    -3   1  -3   31.86    0.94    -4  -1  -3
0.75    0.16     4  -1   3    0.52    0.11    -4  -1  -3    1.24
0.15     4   1   3    1.10    0.11    -4   1  -3    1.08    0.19    -5
-1  -3    0.07    0.08     5  -1   3    0.11    0.08    -5  -1  -3
0.06    0.11    -5   1  -3    0.15    0.12     6  -1   3    8.50
0.41    -6  -1  -3    8.54    0.47    -6   1  -3    8.28    0.47    -7
-1  -3    0.49    0.16     7  -1   3    0.49    0.13    -9  -2   3
0.24    0.18     9  -2  -3    0.19    0.14     9   2  -3    0.66
0.17    -8  -2   3    0.18    0.14     8  -2  -3    0.04    0.11     8
2  -3    0.06    0.10    -7  -2   3    1.53    0.23     7  -2  -3
1.33    0.20     7   2  -3    1.65    0.19     6  -2  -3    0.13
0.10    -6  -2   3    0.12    0.11     6   2  -3    0.25    0.09    -5
-2   3    1.89    0.20     5  -2  -3    1.63    0.18     4  -2  -3
5.42    0.26    -4  -2   3    5.30    0.29     4   2  -3    5.67
0.27     3  -2  -3   26.08    0.69    -3  -2   3   26.06    0.76     3
2  -3   25.86    0.71    -2  -2   3   20.89    0.60     2  -2  -3
20.79    0.54     2  -2  -3   20.88    0.63     2   2  -3   20.43
0.59    -1  -2   3    0.22    0.07     1  -2  -3    0.16    0.07     1
-2  -3    0.24    0.05     1   2  -3    0.23    0.08     1   2  -3
0.20    0.06     0  -2  -3    1.22    0.14     0  -2   3    1.34
0.09     0   2  -3    1.56    0.15     0   2  -3    1.41    0.13    -1
-2  -3    0.76    0.13    -1   2  -3    0.79    0.13    -2  -2  -3
1.18    0.17    -2   2  -3    1.55    0.17    -2   2  -3    1.64
0.18    -3  -2  -3    5.21    0.32    -3  -2  -3    4.44    0.26    -3
2  -3    5.05    0.31    -3   2  -3    5.07    0.29    -4  -2  -3
0.88    0.15     4  -2   3    1.12    0.18     4  -2   3    1.00
0.16    -4  -2  -3    0.79    0.18    -4   2  -3    1.00    0.19    -5
-2  -3    1.46    0.20    -5  -2  -3    1.34    0.21     5  -2   3
1.35    0.19    -5   2  -3    1.40    0.24    -6  -2  -3   24.39
0.83     6  -2   3   23.55    0.81    -6  -2  -3   22.35    0.85    -6
2  -3   22.17    0.89    -7  -2  -3    1.93    0.28     7  -2   3
2.39    0.29    -7   2  -3    1.92    0.30     8  -3  -3    0.16
0.13    -8  -3   3    0.28    0.18     7  -3  -3    3.00    0.29    -7
-3   3    3.16    0.32     7   3  -3    3.11    0.25    -6  -3   3
1.03    0.19     6  -3  -3    1.21    0.19     6   3  -3    1.22
0.16     5  -3  -3    2.07    0.20    -5  -3   3    2.06    0.23     5
3  -3    2.01    0.19     4  -3  -3    0.05    0.07    -4  -3   3
0.26    0.10     4   3  -3    0.07    0.08     3  -3  -3    0.23
0.08    -3  -3   3    0.30    0.10     2  -3  -3   -0.02    0.06     2
-3  -3    0.12    0.05    -2  -3   3    0.02    0.07     2   3  -3
0.13    0.08     1  -3  -3    0.04    0.07     1  -3  -3    0.05
0.04    -1  -3   3    0.04    0.06     1   3  -3    0.07    0.07     0
-3   3    4.56    0.21     0  -3  -3    4.64    0.28     0   3  -3
4.74    0.26     1  -3   3   26.42    0.67    -1  -3  -3   26.51
0.82    -1   3  -3   26.13    0.78    -2  -3  -3    0.19    0.12    -2
3  -3    0.26    0.10    -3  -3  -3    1.17    0.19    -3  -3  -3
1.37    0.20    -3   3  -3    1.17    0.18     4  -3   3    3.88
0.29    -4  -3  -3    3.90    0.30    -4  -3  -3    3.39    0.30     4
-3   3    3.52    0.27    -5  -3  -3    5.50    0.37     5  -3   3
4.84    0.34     5  -3   3    5.36    0.37    -5  -3  -3    5.36
0.36     6  -3   3    0.35    0.16    -6  -3  -3    0.48    0.16    -6
-3  -3    0.86    0.20     7  -4  -3   23.49    0.85    -7  -4   3
23.21    0.92    -6  -4   3    5.47    0.39     6  -4  -3    5.69
0.35    -5  -4   3   -0.04    0.09     5  -4  -3    0.01    0.08     5
4  -3    0.05    0.07     4  -4  -3   11.19    0.45    -4  -4   3
11.47    0.52     4   4  -3   11.97    0.46     3  -4  -3  103.45
2.57    -3  -4   3  102.91    2.56     3  -4  -3  103.87    2.32     3
4  -3  104.29    2.36     2  -4  -3    7.47    0.30    -2  -4   3
6.90    0.35     2  -4  -3    6.84    0.38    -1  -4   3   17.68
0.59     1  -4  -3   18.56    0.66     1   4  -3   17.74    0.61     0
-4  -3   24.50    0.81     0  -4   3   25.03    0.72     0   4  -3
25.12    0.79    -1  -4  -3   11.60    0.50    -1   4  -3   11.11
0.48    -2  -4  -3    1.61    0.21    -2   4  -3    2.56    0.26    -3
-4  -3    8.91    0.48    -3  -4  -3    7.51    0.42     3  -4   3
7.57    0.43     3  -4   3    8.76    0.43     4  -4   3    3.62
0.32    -4  -4  -3    4.06    0.33     4  -4   3    4.04    0.36    -4
-4  -3    4.16    0.33    -5  -4  -3    4.64    0.37    -5  -4  -3
4.15    0.34     5  -4   3    3.54    0.37     5  -4   3    4.05
0.36     6  -5  -3    3.14    0.31    -6  -5   3    3.29    0.35    -5
-5   3    3.04    0.33     5  -5  -3    3.48    0.30    -4  -5   3
1.20    0.22     4  -5  -3    1.06    0.17    -3  -5   3    8.39
0.44     3  -5  -3    7.31    0.44     3   5  -3    8.21    0.40    -2
-5   3   20.84    0.74     2  -5  -3   20.57    0.79     2   5  -3
20.81    0.71    -1  -5   3    4.21    0.28     1  -5  -3    4.44
0.32     1   5  -3    4.23    0.29     0  -5  -3    0.10    0.10     0
5  -3    0.02    0.08    -1  -5  -3    7.53    0.42    -1   5  -3
7.82    0.42    -2  -5  -3    0.92    0.19    -2   5  -3    0.84
0.19     3  -5   3    1.84    0.26    -3  -5  -3    1.62    0.24     3
-5   3    1.81    0.24    -3  -5  -3    1.24    0.25     4  -5   3
3.36    0.35    -4  -5  -3    2.92    0.36     4  -5   3    3.19
0.31     3  -6  -3   12.76    0.64    -3  -6   3   13.22    0.62    -2
-6   3    0.32    0.14     2  -6  -3    0.52    0.17     1  -6  -3
0.00    0.11     1   6  -3   -0.16    0.09     0  -6  -3   -0.13
0.11     0   6  -3    0.01    0.10    -1  -6  -3    5.75    0.40    -1
6  -3    5.78    0.40    10   0  -4    0.04    0.16     9   0  -4
3.91    0.35     8   0  -4    7.80    0.43     7   0  -4   25.36
0.81     6   0  -4  103.22    2.38     5   0  -4   36.56    0.98     4
0  -4   11.53    0.41     4   0  -4   12.37    0.37     3   0  -4
0.55    0.08     3   0  -4    0.38    0.09     2   0  -4    2.74
0.15     2   0  -4    2.45    0.16     1   0  -4    1.56    0.13     1
0  -4    1.33    0.12     0   0  -4   16.72    0.51     0   0  -4
16.58    0.46    -1   0  -4   34.32    0.84    -1   0  -4   35.73
0.95    -2   0  -4   80.05    1.78    -2   0  -4   81.46    1.86     3
0   4    0.48    0.10     3   0   4    0.35    0.09    -3   0  -4
0.36    0.13    -3   0  -4    0.54    0.08    -4   0  -4    1.10
0.19     4   0   4    1.04    0.14    -5   0  -4    2.20    0.27     5
0   4    2.46    0.20    -6   0  -4   14.52    0.66    -7   0  -4
0.35    0.14     9  -1  -4    0.23    0.15     9   1  -4    0.21
0.13    -8  -1   4    6.19    0.40     8  -1  -4    6.19    0.38     8
1  -4    5.79    0.36    -7  -1   4   11.53    0.53     7  -1  -4
11.62    0.50     7   1  -4   11.33    0.49    -6  -1   4   -0.03
0.10     6  -1  -4    0.12    0.09     6   1  -4   -0.01    0.08    -5
-1   4   15.17    0.55     5  -1  -4   14.03    0.50     5   1  -4
14.70    0.51     4  -1  -4   33.31    0.88    -4  -1   4   33.42
0.95     4   1  -4   34.07    0.89     4   1  -4   34.85    0.78     3
-1  -4   22.49    0.60    -3  -1   4   21.25    0.64     3   1  -4
22.32    0.53     3   1  -4   22.26    0.62     2  -1  -4  126.51
2.85     2  -1  -4  125.66    2.64     2   1  -4  123.16    2.75     2
1  -4  124.58    2.69     1  -1  -4   55.82    1.22     1  -1  -4
53.99    1.36     1   1  -4   54.30    1.28     1   1  -4   56.04
1.30     0  -1  -4   15.51    0.40     0  -1  -4   14.83    0.51     0
1  -4   16.22    0.48     0   1  -4   15.49    0.48    -1  -1  -4
1.14    0.09    -1  -1  -4    1.15    0.15    -1   1  -4    1.35
0.15    -1   1  -4    1.26    0.14    -2  -1  -4   21.35    0.69     2
1   4   21.30    0.51    -2   1  -4   20.82    0.62     2   1   4
21.16    0.49    -2   1  -4   20.47    0.67    -3  -1  -4    3.11
0.20     3  -1   4    2.61    0.19     3  -1   4    2.87    0.21    -3
-1  -4    2.96    0.27     3   1   4    3.01    0.15    -3   1  -4
3.03    0.26    -4  -1  -4    1.08    0.19     4  -1   4    1.04
0.17    -4  -1  -4    1.26    0.16     4  -1   4    0.91    0.14    -4
1  -4    0.73    0.17     5  -1   4    6.13    0.33    -5  -1  -4
6.90    0.41    -5   1  -4    6.15    0.40    -6  -1  -4    0.35
0.14     6  -1   4    0.14    0.10    -6   1  -4    0.11    0.10     9
-2  -4    1.08    0.22    -9  -2   4    1.05    0.26     8  -2  -4
0.57    0.15    -8  -2   4    0.83    0.22     8   2  -4    0.53
0.14     7  -2  -4   22.68    0.77    -7  -2   4   23.48    0.84     7
2  -4   22.06    0.73    -6  -2   4    0.04    0.11     6  -2  -4
0.11    0.09     6   2  -4   -0.02    0.08     5  -2  -4    0.02
0.07    -5  -2   4    0.05    0.09     5   2  -4    0.02    0.08     4
-2  -4    8.83    0.35    -4  -2   4    7.69    0.37     4   2  -4
9.08    0.35     3  -2  -4   43.32    1.04    -3  -2   4   42.71
1.14     3  -2  -4   43.64    1.16     3   2  -4   43.80    1.09     2
-2  -4   31.71    0.76    -2  -2   4   31.25    0.85     2  -2  -4
30.60    0.89     2   2  -4   32.29    0.76     2   2  -4   32.40
0.85    -1  -2   4    0.05    0.06     1  -2  -4    0.19    0.05     1
-2  -4    0.09    0.07     1   2  -4    0.05    0.07     1   2  -4
0.13    0.06     0  -2  -4   13.07    0.50     0  -2   4   13.75
0.36     0   2  -4   13.18    0.44     0   2  -4   12.37    0.46    -1
-2  -4    9.03    0.41    -1   2  -4    8.78    0.38    -2  -2  -4
38.38    1.12    -2   2  -4   40.24    1.12    -2   2  -4   39.97
1.06    -3  -2  -4    5.63    0.35    -3  -2  -4    5.59    0.31    -3
2  -4    5.04    0.33    -3   2  -4    5.52    0.31    -4  -2  -4
12.07    0.57    -4  -2  -4   12.72    0.51     4  -2   4   12.36
0.52     4  -2   4   12.00    0.50    -4   2  -4   12.01    0.55     5
-2   4    3.87    0.29    -5  -2  -4    5.30    0.33    -5  -2  -4
4.09    0.36    -5   2  -4    4.24    0.38     6  -2   4    3.16
0.30    -6  -2  -4    2.79    0.33    -6   2  -4    2.73    0.35    -8
-3   4    1.24    0.25     8  -3  -4    1.47    0.23     8   3  -4
1.41    0.20     7  -3  -4    2.00    0.23    -7  -3   4    1.94
0.26     7   3  -4    1.88    0.21    -6  -3   4    1.48    0.22     6
-3  -4    1.97    0.22     6   3  -4    1.42    0.18    -5  -3   4
3.28    0.27     5  -3  -4    3.10    0.23     5   3  -4    2.92
0.22     4  -3  -4    2.93    0.20    -4  -3   4    2.79    0.23     4
3  -4    3.11    0.23     3  -3  -4    5.08    0.30     3  -3  -4
4.93    0.24    -3  -3   4    4.72    0.28     3   3  -4    5.25
0.28    -2  -3   4   86.17    2.06     2  -3  -4   83.85    1.86     2
-3  -4   87.26    2.13     2   3  -4   85.27    1.99     1  -3  -4
9.37    0.43     1  -3  -4    9.99    0.29    -1  -3   4    9.59
0.35     1   3  -4    9.42    0.41     0  -3  -4    1.02    0.17     0
-3   4    1.38    0.12     0   3  -4    1.44    0.18    -1  -3  -4
0.42    0.14    -1   3  -4    0.15    0.09    -1   3  -4    0.28
0.11    -2  -3  -4    3.11    0.28    -2   3  -4    2.84    0.25    -2
3  -4    2.90    0.26    -3  -3  -4    0.09    0.12    -3  -3  -4
0.22    0.11    -3   3  -4    0.12    0.11    -3   3  -4    0.14
0.11     4  -3   4    1.03    0.20     4  -3   4    0.68    0.15    -4
-3  -4    0.35    0.13    -4  -3  -4    0.89    0.20    -4   3  -4
1.16    0.23     5  -3   4    3.48    0.35    -5  -3  -4    3.04
0.33    -5  -3  -4    3.73    0.33     5  -3   4    3.44    0.32    -5
3  -4    2.88    0.36     7  -4  -4    1.70    0.25    -7  -4   4
1.97    0.28    -6  -4   4    9.74    0.52     6  -4  -4    8.79
0.45     6   4  -4    9.91    0.44     5  -4  -4    3.29    0.25    -5
-4   4    3.90    0.30     5   4  -4    3.49    0.25     4  -4  -4
0.11    0.07    -4  -4   4    0.01    0.09     4  -4  -4    0.00
0.08     4   4  -4    0.01    0.05     3  -4  -4    8.59    0.35    -3
-4   4    8.92    0.41     3  -4  -4    8.63    0.44     3   4  -4
8.99    0.41    -2  -4   4    2.86    0.21     2  -4  -4    2.48
0.26     2   4  -4    2.72    0.24     1  -4  -4    5.20    0.34    -1
-4   4    5.24    0.27     1   4  -4    5.71    0.33     0  -4  -4
10.63    0.50     0   4  -4   10.19    0.47    -1  -4  -4    7.46
0.42    -1   4  -4    7.31    0.39    -2  -4  -4    0.24    0.14    -2
4  -4    0.55    0.16    -3  -4  -4    0.93    0.20    -3  -4  -4
0.66    0.17    -3   4  -4    0.89    0.19    -4  -4  -4    0.64
0.18     4  -4   4    0.97    0.21    -4  -4  -4    0.43    0.16     4
-4   4    0.42    0.14    -6  -5   4    5.50    0.41     6  -5  -4
6.25    0.38    -5  -5   4    0.11    0.11     5  -5  -4    0.11
0.08     5  -5  -4   -0.08    0.08     5   5  -4    0.13    0.10     4
-5  -4    0.25    0.11    -4  -5   4    0.22    0.14     4   5  -4
0.48    0.14     3  -5  -4    2.37    0.29    -3  -5   4    2.32
0.25     3   5  -4    1.94    0.23    -2  -5   4   22.11    0.76     2
-5  -4   21.36    0.83     2   5  -4   22.63    0.77     1  -5  -4
0.76    0.18     1   5  -4    0.68    0.16     0  -5  -4    0.51
0.17     0   5  -4    0.35    0.13    -1  -5  -4    1.15    0.22    -1
5  -4    1.06    0.20    -2  -5  -4    0.16    0.15    -2   5  -4
0.16    0.13    -3  -5  -4    0.26    0.18     3  -5   4    0.19
0.11     3  -5   4    0.53    0.14    -3  -5  -4    0.31    0.16     3
-6  -4    1.90    0.29     2  -6  -4    3.29    0.36     2   6  -4
2.66    0.29     1  -6  -4    2.22    0.31     1   6  -4    2.62
0.29     0  -6  -4    0.06    0.13    10   0  -5   -0.05    0.14     9
0  -5   -0.05    0.13     8   0  -5   -0.08    0.09     7   0  -5
-0.10    0.07     6   0  -5   -0.07    0.08     5   0  -5   -0.14
0.07     5   0  -5   -0.01    0.05     4   0  -5    0.03    0.08     4
0  -5   -0.02    0.05     3   0  -5    0.03    0.07     3   0  -5
0.00    0.05     2   0  -5   -0.06    0.06     2   0  -5   -0.06
0.06     1   0  -5   -0.01    0.03     1   0  -5   -0.06    0.06     0
0  -5    0.01    0.06     0   0  -5   -0.02    0.07    -1   0  -5
0.00    0.09    -1   0  -5   -0.02    0.06    -2   0  -5    0.21
0.08    -2   0  -5    0.05    0.10     3   0   5    0.03    0.06     3
0   5    0.02    0.06    -3   0  -5   -0.03    0.10    -4   0  -5
0.04    0.10    -5   0  -5    0.05    0.11    -6   0  -5    0.14
0.11     9  -1  -5    2.57    0.30     9   1  -5    2.49    0.30     8
-1  -5    6.51    0.40     8   1  -5    6.14    0.39     7  -1  -5
7.26    0.39     7   1  -5    7.18    0.39    -6  -1   5   41.10
1.20     6  -1  -5   40.30    1.11     6   1  -5   41.44    1.12    -5
-1   5    0.20    0.10     5  -1  -5    0.21    0.09     5  -1  -5
0.24    0.10     5   1  -5    0.23    0.10     4  -1  -5    5.89
0.28     4  -1  -5    5.76    0.29     4   1  -5    5.95    0.29     4
1  -5    5.79    0.20     3  -1  -5    1.89    0.15     3  -1  -5
2.85    0.19     3   1  -5    3.09    0.14     3   1  -5    3.07
0.20     2  -1  -5    5.83    0.28     2  -1  -5    5.57    0.25     2
1  -5    5.82    0.23     2   1  -5    5.78    0.28     1  -1  -5
19.33    0.51     1  -1  -5   18.21    0.60     1   1  -5   18.48
0.55     1   1  -5   18.51    0.57     0  -1  -5   14.73    0.52     0
-1  -5   14.05    0.39     0   1  -5   14.63    0.48     0   1  -5
13.24    0.47    -1  -1  -5    1.46    0.19    -1  -1  -5    1.32
0.11    -1   1  -5    1.23    0.15    -1   1  -5    1.45    0.17    -2
-1  -5    6.71    0.38    -2   1  -5    6.38    0.31    -2   1  -5
6.48    0.35    -3  -1  -5   53.39    1.50    -3  -1  -5   56.56
1.39    -3   1  -5   53.64    1.36    -3   1  -5   52.61    1.49     4
-1   5   11.45    0.45     4  -1   5   11.23    0.46    -4  -1  -5
10.58    0.54    -4   1  -5   10.53    0.54    -5  -1  -5    0.32
0.12     5  -1   5    0.02    0.09    -5   1  -5   -0.04    0.10    -6
-1  -5    0.53    0.16    -6   1  -5    0.36    0.14    -9  -2   5
0.36    0.21     9  -2  -5    0.40    0.15     9   2  -5    0.51
0.18     8  -2  -5    4.76    0.35    -8  -2   5    5.24    0.40     8
2  -5    4.85    0.34     7  -2  -5    5.36    0.34    -7  -2   5
5.86    0.39     7   2  -5    5.68    0.33    -6  -2   5    4.28
0.31     6  -2  -5    4.12    0.28     6   2  -5    4.01    0.27     5
-2  -5    0.16    0.09    -5  -2   5    0.15    0.12     5  -2  -5
0.16    0.09     5   2  -5    0.16    0.10    -4  -2   5    1.65
0.18     4  -2  -5    1.53    0.16     4  -2  -5    1.60    0.18     4
2  -5    1.68    0.19    -3  -2   5    0.34    0.11     3  -2  -5
0.35    0.10     3  -2  -5    0.21    0.08     3   2  -5    0.32
0.05     3   2  -5    0.35    0.11    -2  -2   5    8.02    0.32     2
-2  -5    8.27    0.38     2  -2  -5    8.34    0.30     2   2  -5
8.26    0.37     2   2  -5    8.42    0.29     1  -2  -5   58.99
1.27     1  -2  -5   56.86    1.51     1   2  -5   56.80    1.42     1
2  -5   59.02    1.41     0  -2  -5   18.79    0.66     0   2  -5
19.03    0.60     0   2  -5   18.45    0.62    -1  -2  -5    1.40
0.20    -1   2  -5    1.45    0.18    -2  -2  -5   -0.03    0.09    -2
2  -5   -0.02    0.09    -2   2  -5   -0.07    0.07    -3  -2  -5
2.12    0.27    -3  -2  -5    2.34    0.22    -3   2  -5    1.92
0.24    -3   2  -5    1.95    0.22    -4  -2  -5    0.64    0.15    -4
-2  -5    1.07    0.21     4  -2   5    0.66    0.16     4  -2   5
0.63    0.14    -4   2  -5    0.56    0.17    -5  -2  -5    2.69
0.33     5  -2   5    2.63    0.30     5  -2   5    3.42    0.30    -5
2  -5    2.65    0.33     8  -3  -5    0.34    0.13    -8  -3   5
0.31    0.15     8   3  -5    0.14    0.10    -7  -3   5    1.54
0.24     7  -3  -5    1.70    0.23     7   3  -5    1.81    0.22     6
-3  -5   21.14    0.71    -6  -3   5   21.47    0.78     6   3  -5
20.55    0.70     5  -3  -5    2.33    0.24     5  -3  -5    2.66
0.22    -5  -3   5    3.01    0.27     5   3  -5    2.57    0.23    -4
-3   5    0.61    0.15     4  -3  -5    0.65    0.15     4  -3  -5
0.47    0.11     4   3  -5    0.68    0.14     3  -3  -5    5.47
0.25    -3  -3   5    5.67    0.30     3  -3  -5    5.60    0.33     3
3  -5    5.07    0.31     2  -3  -5   10.79    0.36     2  -3  -5
10.58    0.48    -2  -3   5   11.26    0.41     2   3  -5   10.67
0.45     1  -3  -5    1.72    0.22    -1  -3   5    1.75    0.15     1
3  -5    1.62    0.20     0  -3  -5    4.41    0.32     0   3  -5
3.01    0.22     0   3  -5    3.16    0.26    -1  -3  -5    4.14
0.32    -1   3  -5    4.42    0.28    -1   3  -5    3.89    0.28    -2
-3  -5    0.93    0.19    -2   3  -5    0.95    0.18    -2   3  -5
0.49    0.15    -3  -3  -5    0.23    0.15    -3  -3  -5    0.01
0.07    -3   3  -5    0.13    0.10    -3   3  -5    0.22    0.13    -4
-3  -5    0.80    0.17     4  -3   5    0.89    0.20    -4  -3  -5
0.99    0.22     4  -3   5    0.90    0.19    -4   3  -5    1.07
0.24    -5  -3  -5    0.46    0.18     5  -3   5    0.20    0.13     5
-3   5   -0.11    0.12    -5   3  -5    0.20    0.19     7  -4  -5
0.62    0.16    -7  -4   5    1.07    0.21     7   4  -5    0.78
0.17     6  -4  -5   10.53    0.48    -6  -4   5   11.44    0.55     5
-4  -5    7.09    0.36    -5  -4   5    7.89    0.42     5  -4  -5
8.31    0.46     5   4  -5    8.03    0.40     4  -4  -5    1.89
0.25     4  -4  -5    2.17    0.19    -4  -4   5    1.77    0.22     4
4  -5    1.80    0.22    -3  -4   5    1.23    0.18     3  -4  -5
1.15    0.20     3   4  -5    1.23    0.19     2  -4  -5   70.75
1.89    -2  -4   5   69.60    1.76     2   4  -5   69.85    1.77     1
-4  -5    3.08    0.30     1   4  -5    2.64    0.26     0  -4  -5
7.93    0.44     0   4  -5    6.60    0.40    -1  -4  -5   14.07
0.63    -1   4  -5   13.97    0.59    -2  -4  -5   15.22    0.67    -2
4  -5   15.52    0.64    -3  -4  -5    0.01    0.12    -3  -4  -5
-0.05    0.11    -3   4  -5   -0.04    0.07    -4  -4  -5    3.06
0.33    -4  -4  -5    2.84    0.33     4  -4   5    2.72    0.34     4
-4   5    2.99    0.33    -6  -5   5    9.47    0.52     6  -5  -5
9.58    0.47     6  -5  -5    9.60    0.56     5  -5  -5    1.56
0.25    -5  -5   5    1.83    0.26     5   5  -5    2.22    0.26     4
-5  -5    4.84    0.37    -4  -5   5    4.82    0.34     4   5  -5
4.77    0.34    -3  -5   5    6.12    0.36     3  -5  -5    5.97
0.41     3   5  -5    5.67    0.37     2  -5  -5    0.15    0.11     2
5  -5    0.28    0.13     1  -5  -5    7.04    0.45     1   5  -5
7.47    0.44     0  -5  -5    2.47    0.30     0   5  -5    2.54
0.29    -1  -5  -5    0.21    0.13    -1   5  -5    0.18    0.14    -2
-5  -5    6.17    0.43    -2   5  -5    6.87    0.45    10   0  -6
25.40    0.98     9   0  -6    0.71    0.22     8   0  -6    6.79
0.43     7   0  -6   29.86    0.95     6   0  -6   75.36    1.86     6
0  -6   76.36    1.81     5   0  -6   75.17    1.80     5   0  -6
76.22    1.79     4   0  -6   67.09    1.57     4   0  -6   63.25
1.56     3   0  -6   51.78    1.27     3   0  -6   51.68    1.28     2
0  -6   10.49    0.39     2   0  -6    9.55    0.38     1   0  -6
12.46    0.43     0   0  -6    9.36    0.35     0   0  -6    8.84
0.40    -1   0  -6    0.26    0.12    -1   0  -6    0.13    0.08    -2
0  -6   13.14    0.46    -2   0  -6   13.94    0.57    -3   0  -6
6.48    0.41    -4   0  -6    6.78    0.43    -5   0  -6    2.85
0.33     9  -1  -6   10.91    0.58     9   1  -6   10.87    0.56     8
-1  -6    4.46    0.34     8   1  -6    4.10    0.35     7  -1  -6
0.19    0.11     7  -1  -6    0.06    0.06     7   1  -6    0.04
0.10     6  -1  -6    4.92    0.27     6  -1  -6    4.74    0.31     6
1  -6    4.17    0.30     5  -1  -6    3.72    0.23     5  -1  -6
3.14    0.24     5   1  -6    2.68    0.24     4  -1  -6    1.99
0.18     4  -1  -6    1.65    0.18     4   1  -6    1.80    0.19     4
1  -6    1.96    0.13     3  -1  -6   17.92    0.56     3   1  -6
17.46    0.50     3   1  -6   17.41    0.58     2  -1  -6   34.93
1.00     2  -1  -6   36.23    0.90     2   1  -6   36.00    0.97     2
1  -6   35.02    0.92     1  -1  -6    6.78    0.27     1  -1  -6
6.15    0.33     1   1  -6    6.29    0.31     1   1  -6    5.99
0.29     0  -1  -6    3.81    0.27     0  -1  -6    3.84    0.19     0
1  -6    3.38    0.23    -1  -1  -6    4.82    0.32    -1   1  -6
4.29    0.29    -1   1  -6    3.95    0.25    -2  -1  -6    0.28
0.14    -2   1  -6    0.28    0.10    -2   1  -6    0.09    0.11    -3
-1  -6    4.67    0.35    -3   1  -6    5.17    0.31    -3   1  -6
4.24    0.33     4  -1   6    1.95    0.23    -4  -1  -6    2.88
0.32     4  -1   6    2.06    0.22    -4   1  -6    2.25    0.30    -5
-1  -6    0.50    0.16    -5   1  -6    0.56    0.21     9  -2  -6
0.32    0.13     9   2  -6    0.50    0.19    -8  -2   6    0.23
0.13     8  -2  -6    0.02    0.09     8   2  -6    0.00    0.11     7
-2  -6    0.10    0.10    -7  -2   6    0.05    0.12     7   2  -6
0.13    0.11    -6  -2   6   10.37    0.50     6  -2  -6   10.99
0.47     6   2  -6   10.48    0.46    -5  -2   6    4.60    0.30     5
-2  -6    3.70    0.26     5  -2  -6    3.65    0.26     5   2  -6
4.06    0.28     4  -2  -6    0.13    0.09     4  -2  -6    0.15
0.09    -4  -2   6    0.08    0.09     4   2  -6    0.02    0.08     3
-2  -6    1.52    0.16     3  -2  -6    1.21    0.18     3   2  -6
1.08    0.17     2  -2  -6    9.25    0.34     2  -2  -6    9.05
0.42     2   2  -6    8.85    0.41     2   2  -6    9.32    0.33     1
-2  -6    4.88    0.32     1   2  -6    4.73    0.29     1   2  -6
4.62    0.25     0  -2  -6   -0.03    0.10     0   2  -6    0.04
0.09     0   2  -6    0.15    0.09    -1  -2  -6    1.09    0.20    -1
2  -6    1.10    0.18    -2  -2  -6    0.44    0.16    -2   2  -6
0.67    0.16    -2   2  -6    0.35    0.13    -3  -2  -6   16.48
0.71    -3   2  -6   15.55    0.67    -3   2  -6   15.66    0.61     4
-2   6    1.21    0.19    -4  -2  -6    1.27    0.23     4  -2   6
1.21    0.22    -4   2  -6    1.20    0.25    -8  -3   6   -0.03
0.10     8  -3  -6    0.16    0.11     8   3  -6    0.28    0.13     7
-3  -6    0.01    0.10     7  -3  -6   -0.02    0.09    -7  -3   6
0.10    0.12     7   3  -6    0.13    0.11    -6  -3   6    0.36
0.14     6  -3  -6    0.57    0.14     6  -3  -6    0.60    0.15     6
3  -6    0.47    0.13     5  -3  -6    5.58    0.31     5  -3  -6
5.88    0.36    -5  -3   6    5.74    0.35     5   3  -6    5.65
0.33    -4  -3   6    7.68    0.38     4  -3  -6    7.52    0.41     4
-3  -6    6.59    0.31     4   3  -6    7.19    0.38    -3  -3   6
3.95    0.25     3  -3  -6    3.98    0.23     3  -3  -6    4.33
0.31     3   3  -6    4.10    0.29    -2  -3   6    8.24    0.35     2
-3  -6    7.67    0.43     2   3  -6    8.16    0.41     1  -3  -6
41.12    1.26     1   3  -6   42.53    1.20     1   3  -6   43.11
1.12     0  -3  -6    1.23    0.22     0   3  -6    0.93    0.18     0
3  -6    1.14    0.17    -1  -3  -6    0.88    0.20    -1   3  -6
0.68    0.15    -1   3  -6    0.92    0.17    -2  -3  -6    3.24
0.33    -2   3  -6    3.13    0.30    -2   3  -6    2.93    0.29    -3
-3  -6    7.01    0.46    -3  -3  -6    8.42    0.45    -3   3  -6
7.77    0.44    -3   3  -6    8.01    0.48     4  -3   6    0.15
0.13    -4  -3  -6    0.36    0.16     4  -3   6    0.02    0.11    -4
3  -6    0.01    0.15    -7  -4   6    0.30    0.14     7  -4  -6
0.33    0.14     7  -4  -6    0.19    0.12     7   4  -6    0.40
0.14     6  -4  -6    0.12    0.12     6  -4  -6    0.07    0.10    -6
-4   6    0.10    0.12     6   4  -6    0.16    0.11     5  -4  -6
3.31    0.33     5  -4  -6    2.85    0.24    -5  -4   6    3.37
0.30     5   4  -6    3.15    0.29     4  -4  -6    2.67    0.30    -4
-4   6    2.52    0.25     4   4  -6    2.81    0.28    -3  -4   6
0.44    0.12     3  -4  -6    0.29    0.14     3   4  -6    0.53
0.15     2  -4  -6    2.98    0.31     2   4  -6    3.40    0.31     1
-4  -6    1.46    0.24     1   4  -6    1.40    0.23     0  -4  -6
1.77    0.26     0   4  -6    1.83    0.26    -1  -4  -6    4.42
0.36    -1   4  -6    3.82    0.34    -2  -4  -6    4.19    0.38    -2
4  -6    4.30    0.33    -3  -4  -6    0.37    0.16    -3  -4  -6
0.27    0.15    -3   4  -6    0.25    0.11     5  -5  -6   13.32
0.68    -5  -5   6   13.58    0.62     5   5  -6   13.29    0.60     4
-5  -6    1.93    0.29     4   5  -6    1.53    0.25     3  -5  -6
0.71    0.18     3   5  -6    1.01    0.22     2  -5  -6   -0.07
0.09     2   5  -6    0.03    0.11     1  -5  -6   31.22    1.12     1
5  -6   32.46    1.09     0  -5  -6   -0.05    0.12     0   5  -6
0.10    0.13    -1  -5  -6    3.13    0.37    -1   5  -6    2.79
0.34     9   0  -7   -0.12    0.11     8   0  -7    0.00    0.11     7
0  -7    0.00    0.09     6   0  -7   -0.07    0.08     5   0  -7
0.00    0.09     5   0  -7   -0.09    0.07     4   0  -7   -0.03
0.08     4   0  -7    0.05    0.09     3   0  -7    0.08    0.09     3
0  -7   -0.10    0.08     2   0  -7   -0.06    0.08     2   0  -7
-0.05    0.08     1   0  -7    0.01    0.09     1   0  -7   -0.05
0.09     0   0  -7    0.08    0.08     0   0  -7   -0.04    0.09    -1
0  -7   -0.03    0.07    -1   0  -7   -0.03    0.10    -2   0  -7
0.03    0.11    -3   0  -7    0.09    0.13    -4   0  -7    0.16
0.16     9  -1  -7    9.64    0.54     9   1  -7    9.84    0.56     8
-1  -7    3.54    0.33     8   1  -7    3.45    0.33     7  -1  -7
2.78    0.23     7  -1  -7    1.61    0.23     7   1  -7    1.78
0.25     6  -1  -7    2.23    0.24     6  -1  -7    2.47    0.21     6
1  -7    2.42    0.25     5  -1  -7   37.29    1.03     5  -1  -7
37.72    1.04     5   1  -7   35.59    1.04     4  -1  -7    3.23
0.24     4  -1  -7    2.97    0.24     4   1  -7    3.47    0.26     3
-1  -7    2.88    0.23     3   1  -7    3.23    0.20     3   1  -7
2.99    0.25     2  -1  -7    2.17    0.19     2  -1  -7    2.30
0.24     2   1  -7    2.27    0.20     2   1  -7    2.17    0.22     1
-1  -7    6.72    0.30     1  -1  -7    6.35    0.37     1   1  -7
7.40    0.36     1   1  -7    7.32    0.34     0  -1  -7    1.81
0.23     0   1  -7    1.68    0.19    -1  -1  -7    1.90    0.25    -1
1  -7    1.60    0.21    -1   1  -7    1.47    0.19    -2  -1  -7
0.55    0.20    -2   1  -7    0.38    0.15    -2   1  -7    0.44
0.13     3  -1   7    9.12    0.41     3  -1   7    9.94    0.45    -3
-1  -7    8.94    0.51    -3   1  -7    9.04    0.51    -4  -1  -7
10.54    0.58    -4   1  -7    9.65    0.57     9  -2  -7    3.66
0.37     9   2  -7    3.34    0.36     8  -2  -7    0.92    0.20     8
-2  -7    0.77    0.17     8   2  -7    0.38    0.16     7  -2  -7
1.47    0.21     7  -2  -7    1.41    0.22     7   2  -7    1.72
0.24     6  -2  -7    5.21    0.32     6  -2  -7    3.87    0.28     6
2  -7    5.19    0.33     5  -2  -7    3.97    0.27     5  -2  -7
3.45    0.26     5   2  -7    4.14    0.29     4  -2  -7    0.12
0.10     4  -2  -7    0.18    0.10     4   2  -7    0.09    0.09     3
-2  -7    7.47    0.33     3  -2  -7    7.17    0.39     3   2  -7
7.47    0.39     2  -2  -7    3.96    0.31     2   2  -7    4.10
0.23     2   2  -7    4.44    0.30     1  -2  -7   17.62    0.69     1
2  -7   16.70    0.63     1   2  -7   16.71    0.57     0  -2  -7
21.20    0.79     0   2  -7   19.90    0.68     0   2  -7   20.94
0.72    -1  -2  -7   14.81    0.65    -1   2  -7   15.10    0.59    -1
2  -7   13.71    0.57    -2  -2  -7    3.42    0.35    -2   2  -7
2.99    0.30    -2   2  -7    3.21    0.29    -3  -2  -7    0.01
0.12    -3   2  -7    0.04    0.10    -3   2  -7   -0.01    0.12    -8
-3   7    3.50    0.35     8  -3  -7    3.42    0.33     8  -3  -7
3.05    0.31     8   3  -7    2.92    0.32     7  -3  -7    1.82
0.23    -7  -3   7    3.04    0.32     7  -3  -7    2.92    0.30     7
3  -7    2.25    0.27     6  -3  -7    0.26    0.12    -6  -3   7
0.25    0.14     6  -3  -7    0.26    0.12     6   3  -7    0.25
0.13     5  -3  -7   23.96    0.85    -5  -3   7   23.82    0.83     5
-3  -7   23.43    0.75     5   3  -7   23.21    0.81     4  -3  -7
10.13    0.51    -4  -3   7   10.14    0.45     4   3  -7   10.14
0.48     3  -3  -7    1.00    0.20     3   3  -7    1.22    0.21     2
-3  -7    2.01    0.26     2   3  -7    2.17    0.26     1  -3  -7
14.13    0.65     1   3  -7   14.84    0.61     0  -3  -7    5.40
0.39     0   3  -7    6.08    0.33     0   3  -7    5.44    0.36    -1
-3  -7    0.86    0.20    -1   3  -7    0.90    0.18    -1   3  -7
1.18    0.20    -2  -3  -7    6.60    0.46    -2   3  -7    7.17
0.42    -2   3  -7    6.93    0.42    -3  -3  -7    1.62    0.27    -3
3  -7    1.85    0.29    -3   3  -7    1.59    0.25    -7  -4   7
0.72    0.19     7  -4  -7    0.45    0.19     7  -4  -7    0.32
0.14     7   4  -7    0.24    0.14    -6  -4   7    0.35    0.15     6
-4  -7    0.34    0.16     6   4  -7    0.36    0.14     5  -4  -7
0.07    0.13    -5  -4   7    0.04    0.12     5   4  -7   -0.04
0.11     4  -4  -7    0.34    0.16     4   4  -7    0.04    0.12     3
-4  -7    1.03    0.22     3   4  -7    1.29    0.23     2  -4  -7
0.83    0.19     2   4  -7    0.62    0.16     1  -4  -7   25.44
0.98     1   4  -7   25.67    0.92     0  -4  -7    2.46    0.32     0
4  -7    2.74    0.31    -1  -4  -7    1.09    0.22    -1   4  -7
0.76    0.18     4  -5  -7    0.57    0.18     4   5  -7    0.32
0.17     3  -5  -7    2.51    0.33     3   5  -7    2.23    0.30     2
-5  -7    4.83    0.40     2   5  -7    5.11    0.42     9   0  -8
11.56    0.61     8   0  -8    0.63    0.17     7   0  -8    3.73
0.33     6   0  -8   24.00    0.81     5   0  -8   88.20    2.18     5
0  -8   95.12    2.20     4   0  -8   17.12    0.58     4   0  -8
16.09    0.60     3   0  -8   15.76    0.56     3   0  -8   15.65
0.58     2   0  -8   18.04    0.61     2   0  -8   17.82    0.63     1
0  -8    6.23    0.32     1   0  -8    6.06    0.35     0   0  -8
8.09    0.36     0   0  -8    8.65    0.45    -1   0  -8   10.67
0.52    -2   0  -8    4.13    0.37    -3   0  -8    1.25    0.26     9
-1  -8    9.11    0.53     9   1  -8    9.68    0.56     8  -1  -8
4.91    0.37     8   1  -8    4.41    0.38     7  -1  -8    6.64
0.41     7   1  -8    6.25    0.39     6  -1  -8    5.55    0.32     6
-1  -8    4.92    0.33     6   1  -8    4.75    0.33     5  -1  -8
0.45    0.13     5  -1  -8    0.08    0.10     5   1  -8    0.30
0.12     4  -1  -8    2.56    0.25     4  -1  -8    3.22    0.26     4
1  -8    2.83    0.27     3  -1  -8    1.06    0.17     3   1  -8
1.19    0.16     3   1  -8    0.84    0.17     2  -1  -8    0.46
0.14     2  -1  -8    0.74    0.14     2   1  -8    0.42    0.12     2
1  -8    0.76    0.17     1  -1  -8   10.91    0.50     1   1  -8
10.75    0.45     1   1  -8   10.56    0.47     0  -1  -8   -0.05
0.12     0   1  -8   -0.02    0.08     0   1  -8   -0.01    0.09    -1
-1  -8    0.39    0.18    -1   1  -8    0.48    0.15    -1   1  -8
0.29    0.12    -2  -1  -8   -0.12    0.13    -2   1  -8    0.10
0.12    -3  -1  -8    0.19    0.19    -3   1  -8    0.22    0.17     8
-2  -8    4.80    0.39     8  -2  -8    4.49    0.33     8   2  -8
4.84    0.39     7  -2  -8    3.33    0.29     7  -2  -8    3.01
0.30     7   2  -8    3.02    0.30     6  -2  -8    1.21    0.20     6
-2  -8    0.96    0.19     6   2  -8    1.23    0.22     5  -2  -8
5.50    0.33     5  -2  -8    5.12    0.34     5   2  -8    5.42
0.35     4  -2  -8   13.72    0.58     4  -2  -8   13.92    0.52     4
2  -8   13.80    0.58     3  -2  -8    1.52    0.24     3   2  -8
1.86    0.24     2  -2  -8   -0.04    0.11     2   2  -8    0.02
0.10     1  -2  -8    0.14    0.14     1   2  -8    0.10    0.09     1
2  -8    0.04    0.10     0  -2  -8    1.03    0.22     0   2  -8
0.85    0.17     0   2  -8    0.65    0.16    -1  -2  -8    0.17
0.17    -1   2  -8    0.33    0.13    -1   2  -8    0.48    0.15    -2
-2  -8   -0.03    0.14    -2   2  -8    0.02    0.13    -2   2  -8
0.07    0.12     7  -3  -8    0.70    0.18     7  -3  -8    0.49
0.15     7   3  -8    0.52    0.19     6  -3  -8    0.90    0.18     6
-3  -8    0.75    0.19     6   3  -8    1.03    0.22     5  -3  -8
1.99    0.27     5   3  -8    1.56    0.23     4  -3  -8    2.39
0.29     4   3  -8    2.54    0.29     3  -3  -8    3.20    0.33     3
3  -8    3.29    0.31     2  -3  -8    1.72    0.27     2   3  -8
1.84    0.26     1  -3  -8    6.73    0.47     1   3  -8    6.29
0.40     0  -3  -8   18.95    0.83     0   3  -8   19.17    0.76    -1
-3  -8    0.26    0.15    -1   3  -8    0.26    0.13    -1   3  -8
0.26    0.12     6  -4  -8    0.49    0.19    -6  -4   8    0.71
0.18     6   4  -8    0.58    0.18     5  -4  -8    1.75    0.29     5
4  -8    1.76    0.27     4  -4  -8    0.08    0.15     4   4  -8
0.04    0.13     3  -4  -8    0.05    0.14     3   4  -8   -0.02
0.11     2  -4  -8    0.13    0.15     2   4  -8   -0.01    0.09     1
-4  -8    1.15    0.24     1   4  -8    1.67    0.26     0  -4  -8
0.66    0.20     0   4  -8    0.65    0.18     8   0  -9    0.07
0.11     7   0  -9   -0.06    0.09     6   0  -9   -0.10    0.10     5
0  -9    0.12    0.12     4   0  -9    0.08    0.10     4   0  -9
0.05    0.10     3   0  -9    0.04    0.10     3   0  -9    0.26
0.12     2   0  -9   -0.10    0.10     2   0  -9   -0.07    0.09     1
0  -9   -0.06    0.11     1   0  -9    0.18    0.10     0   0  -9
-0.05    0.12    -1   0  -9   -0.02    0.13    -2   0  -9    0.13
0.17     8  -1  -9    8.75    0.50     8   1  -9    8.43    0.49     7
-1  -9    1.71    0.25     7   1  -9    1.87    0.25     6  -1  -9
0.14    0.12     6   1  -9    0.07    0.10     5  -1  -9    0.28
0.14     5  -1  -9    0.38    0.14     5   1  -9    0.30    0.13     4
-1  -9   42.42    1.26     4  -1  -9   43.76    1.20     4   1  -9
42.72    1.24     3  -1  -9    2.56    0.24     3   1  -9    2.25
0.27     2  -1  -9    7.48    0.42     2   1  -9    6.93    0.36     2
1  -9    7.24    0.40     1  -1  -9    4.41    0.35     1   1  -9
4.41    0.31     1   1  -9    4.55    0.32     0  -1  -9    5.19
0.40     0   1  -9    4.65    0.33     0   1  -9    4.91    0.32    -1
-1  -9    0.08    0.18    -1   1  -9    0.30    0.15     8  -2  -9
3.28    0.34     8   2  -9    3.38    0.36     7  -2  -9    3.61
0.33     7  -2  -9    3.71    0.33     7   2  -9    2.84    0.31     6
-2  -9    1.17    0.21     6  -2  -9    1.11    0.20     6   2  -9
1.08    0.20     5  -2  -9    0.25    0.12     5  -2  -9    0.08
0.12     5   2  -9    0.23    0.10     4  -2  -9    0.47    0.16     4
2  -9    0.22    0.12     3  -2  -9    0.10    0.13     3   2  -9
0.17    0.13     2  -2  -9    2.88    0.32     2   2  -9    2.73
0.30     1  -2  -9    4.75    0.39     1   2  -9    4.84    0.35     0
-2  -9   20.10    0.87     0   2  -9   21.21    0.78     0   2  -9
19.37    0.73    -1  -2  -9    2.39    0.36    -1   2  -9    2.15
0.27    -1   2  -9    2.42    0.29     7  -3  -9    0.21    0.16     7
3  -9    0.34    0.17     6  -3  -9    1.50    0.27     6   3  -9
1.69    0.26     5  -3  -9    0.87    0.21     5   3  -9    0.75
0.18     4  -3  -9    6.66    0.45     4   3  -9    6.57    0.42     3
-3  -9    3.60    0.38     3   3  -9    3.71    0.35     2  -3  -9
2.48    0.34     2   3  -9    2.95    0.33     1  -3  -9    0.13
0.18     1   3  -9   -0.05    0.10     0  -3  -9    5.18    0.47     0
3  -9    5.22    0.39     8   0 -10    0.09    0.10     7   0 -10
0.10    0.12     6   0 -10    0.62    0.16     5   0 -10    4.63
0.34     4   0 -10   44.93    1.30     3   0 -10    5.11    0.35     3
0 -10    4.64    0.33     2   0 -10    1.05    0.21     1   0 -10
0.94    0.21     0   0 -10    1.75    0.28     7  -1 -10   -0.01
0.11     7   1 -10    0.14    0.10     6  -1 -10    1.66    0.25     6
1 -10    1.43    0.23     5  -1 -10    4.98    0.36     5  -1 -10
4.25    0.34     5   1 -10    4.93    0.35     4  -1 -10    2.70
0.29     4   1 -10    2.50    0.29     3  -1 -10    0.02    0.10     3
1 -10    0.52    0.17     2  -1 -10    1.97    0.28     2   1 -10
2.65    0.30     1  -1 -10    1.88    0.29     1   1 -10    1.50
0.22     1   1 -10    1.34    0.22     0  -1 -10    0.72    0.23     0
1 -10    0.64    0.19     7  -2 -10    5.70    0.39     7   2 -10
4.84    0.37     6  -2 -10    6.53    0.42     6   2 -10    5.74
0.39     5   2 -10    2.29    0.28     4  -2 -10    3.82    0.36     4
2 -10    3.47    0.35     3  -2 -10   15.20    0.70     3   2 -10
14.89    0.67     2  -2 -10    3.27    0.37     2   2 -10    3.97
0.37     1  -2 -10    0.17    0.18     1   2 -10    0.00    0.11     4
-3 -10    0.57    0.22     4   3 -10    0.39    0.14     3  -3 -10
0.21    0.19     3   3 -10    0.40    0.15     6   0 -11    0.17
0.12     5   0 -11    0.16    0.14     4   0 -11    0.11    0.13     2
0 -11   -0.08    0.16     5   1 -11    1.09    0.21     4  -1 -11
1.41    0.25     4   1 -11    1.21    0.22     3   1 -11   37.24
1.19     0   0   0    0.00    0.00
;
_shelx_hkl_checksum   62204
loop_
 _space_group_symop_operation_xyz
  'x, y, z'
  '-x, y+1/2, -z+1/2'
  '-x, -y, -z'
  'x, -y-1/2, z-1/2'
loop_
 _atom_site_label
 _atom_site_type_symbol
 _atom_site_fract_x
 _atom_site_fract_y
 _atom_site_fract_z
 _atom_site_U_iso_or_equiv
 _atom_site_adp_type
 _atom_site_occupancy
 _atom_site_site_symmetry_order
 _atom_site_calc_flag
 _atom_site_refinement_flags_posn
 _atom_site_refinement_flags_adp
  Li1  Li  0.5103(3)  0.4014(5)  0.1528(3)  0.0168(5)  Uani  1  1  d
  .  .
  O1  O  0.37863(13)  0.54400(19)  0.27646(12)  0.0139(3)  Uani  1
  1  d  .  .
  O2  O  0.34659(13)  0.17093(18)  0.40173(11)  0.0137(3)  Uani  1
  1  d  .  .
  C1  C  0.30768(18)  0.4113(3)  0.35987(16)  0.0115(3)  Uani  1  1
  d  .  .
  C2  C  0.17252(18)  0.5559(3)  0.41055(16)  0.0131(3)  Uani  1  1
  d  .  .
  H2  H  0.1604  0.7436  0.3954  0.016  Uiso  1  1  calc  R  U
  C3  C  0.06752(18)  0.4312(3)  0.47671(16)  0.0131(3)  Uani  1  1
  d  .  .
  H3  H  0.0821  0.2440  0.4940  0.016  Uiso  1  1  calc  R  U
loop_
 _atom_site_aniso_label
 _atom_site_aniso_U_11
 _atom_site_aniso_U_22
 _atom_site_aniso_U_33
 _atom_site_aniso_U_23
 _atom_site_aniso_U_13
 _atom_site_aniso_U_12
  Li1  0.0223(12)  0.0131(11)  0.0200(12)  -0.0010(9)  0.0139(10)
  -0.0019(9)
  O1  0.0162(5)  0.0126(5)  0.0169(5)  0.0002(3)  0.0110(4)
  -0.0004(3)
  O2  0.0164(5)  0.0106(5)  0.0174(5)  0.0012(4)  0.0103(4)
  0.0016(3)
  C1  0.0106(6)  0.0130(6)  0.0116(6)  -0.0016(5)  0.0056(5)
  -0.0008(5)
  C2  0.0142(7)  0.0107(7)  0.0166(7)  -0.0004(5)  0.0087(5)
  0.0015(5)
  C3  0.0141(7)  0.0124(7)  0.0153(7)  0.0000(5)  0.0086(5)
  0.0016(5)
loop_
 _atom_type_symbol
 _atom_type_description
 _atom_type_scat_dispersion_real
 _atom_type_scat_dispersion_imag
 _atom_type_scat_source
  C  C  0.0033  0.0016
  'International Tables Vol C Tables 4.2.6.8 and 6.1.1.4'
  H  H  0.0000  0.0000
  'International Tables Vol C Tables 4.2.6.8 and 6.1.1.4'
  Li  Li  -0.0003  0.0001
  'International Tables Vol C Tables 4.2.6.8 and 6.1.1.4'
  O  O  0.0106  0.0060
  'International Tables Vol C Tables 4.2.6.8 and 6.1.1.4'
loop_
 _geom_angle_atom_site_label_1
 _geom_angle_atom_site_label_2
 _geom_angle_atom_site_label_3
 _geom_angle
 _geom_angle_site_symmetry_1
 _geom_angle_site_symmetry_3
  O1  Li1  O2  112.28(12)  .  2_655
  O1  Li1  O1  115.42(12)  .  2_645
  O2  Li1  O1  119.52(13)  2_655  2_645
  O1  Li1  O2  115.85(12)  .  4_565
  O2  Li1  O2  91.04(11)  2_655  4_565
  O1  Li1  O2  99.46(11)  2_645  4_565
  O1  Li1  Li1  125.63(16)  .  3_665
  O2  Li1  Li1  47.18(8)  2_655  3_665
  O1  Li1  Li1  117.52(15)  2_645  3_665
  O2  Li1  Li1  43.86(8)  4_565  3_665
  O1  Li1  Li1  38.40(8)  .  2_655
  O2  Li1  Li1  74.75(7)  2_655  2_655
  O1  Li1  Li1  133.41(15)  2_645  2_655
  O2  Li1  Li1  125.72(13)  4_565  2_655
  Li1  Li1  Li1  104.24(10)  3_665  2_655
  O1  Li1  Li1  79.97(13)  .  2_645
  O2  Li1  Li1  151.38(16)  2_655  2_645
  O1  Li1  Li1  37.14(4)  2_645  2_645
  O2  Li1  Li1  107.15(10)  4_565  2_645
  Li1  Li1  Li1  145.55(14)  3_665  2_645
  Li1  Li1  Li1  109.40(15)  2_655  2_645
  C1  O1  Li1  126.42(11)  .  .
  C1  O1  Li1  122.24(11)  .  2_655
  Li1  O1  Li1  104.47(8)  .  2_655
  C1  O2  Li1  133.58(11)  .  2_645
  C1  O2  Li1  116.36(10)  .  4_566
  Li1  O2  Li1  88.96(11)  2_645  4_566
  O2  C1  O1  123.96(12)  .  .
  O2  C1  C2  119.44(12)  .  .
  O1  C1  C2  116.60(12)  .  .
  C3  C2  C1  122.49(12)  .  .
  C2  C3  C3  123.03(16)  .  3_566
loop_
 _geom_bond_atom_site_label_1
 _geom_bond_atom_site_label_2
 _geom_bond_distance
 _geom_bond_site_symmetry_2
  Li1  O1  1.916(3)  .
  Li1  O2  1.935(3)  2_655
  Li1  O1  1.971(3)  2_645
  Li1  O2  2.048(3)  4_565
  Li1  Li1  2.792(5)  3_665
  Li1  Li1  3.073(3)  2_655
  Li1  Li1  3.073(3)  2_645
  O1  C1  1.2737(16)  .
  O1  Li1  1.971(3)  2_655
  O2  C1  1.2588(17)  .
  O2  Li1  1.935(3)  2_645
  O2  Li1  2.048(3)  4_566
  C1  C2  1.4901(18)  .
  C2  C3  1.3391(19)  .
  C3  C3  1.451(2)  3_566
loop_
 _cod_related_entry_id
 _cod_related_entry_database
 _cod_related_entry_code
  1  PubChem  168346162
