# generated using pymatgen
data_8106852
loop_
 _publ_author_name
  'Qiao, Wen-Tao'
  'Zhao, Dan'
  'Ma, Fa-Xue'
_publ_section_title
;
Crystal structure of  poly[octaaqua-
tris(benzene-1,2,4,5-tetracarboxylato)tetralanthanum(III)]
hexahydrate, C30H34La4O38
;
_journal_issue   1
_journal_name_full
'Zeitschrift f\"ur Kristallographie - New Crystal Structures'
_journal_page_first   289
_journal_page_last   291
_journal_paper_doi   10.1515/ncrs-2015-0125
_journal_volume   231
_journal_year   2016
_chemical_formula_sum   'C30 H34 La4 O38'
_chemical_formula_weight   1558.21
_space_group_crystal_system   triclinic
_space_group_IT_number   2
_space_group_name_Hall   '-P 1'
_space_group_name_H-M_alt   'P -1'
_atom_sites_solution_hydrogens   mixed
_cell_angle_alpha   86.2390(10)
_cell_angle_beta   84.0140(10)
_cell_angle_gamma   81.3670(10)
_cell_formula_units_Z   1
_cell_length_a   9.24050(10)
_cell_length_b   10.69520(10)
_cell_length_c   10.83070(10)
_cell_measurement_reflns_used   338
_cell_measurement_temperature   296(2)
_cell_measurement_theta_max   24.67
_cell_measurement_theta_min   2.91
_cell_volume   1051.131(18)
_computing_cell_refinement   'SAINT (Bruker, 2013)'
_computing_data_collection   'SMART APEX II (Bruker, 2013)'
_computing_data_reduction   'SAINT (Bruker, 2013)'
_computing_molecular_graphics   'SHELXTL (Sheldrick, 2013)'
_computing_publication_material   'SHELXTL (Sheldrick, 2013)'
_computing_structure_refinement   'SHELXL (Sheldrick, 2013)'
_computing_structure_solution   'SHELXS (Sheldrick, 2013)'
_diffrn_ambient_temperature   296(2)
_diffrn_measured_fraction_theta_full   1.000
_diffrn_measured_fraction_theta_max   0.996
_diffrn_measurement_device_type   'Bruker APEX-II CCD'
_diffrn_measurement_method   '\w scans'
_diffrn_radiation_type   MoK\a
_diffrn_radiation_wavelength   0.71073
_diffrn_reflns_av_R_equivalents   0.0500
_diffrn_reflns_av_unetI/netI   0.0519
_diffrn_reflns_Laue_measured_fraction_full   1.000
_diffrn_reflns_Laue_measured_fraction_max   0.996
_diffrn_reflns_limit_h_max   12
_diffrn_reflns_limit_h_min   -12
_diffrn_reflns_limit_k_max   14
_diffrn_reflns_limit_k_min   -13
_diffrn_reflns_limit_l_max   14
_diffrn_reflns_limit_l_min   -14
_diffrn_reflns_number   22001
_diffrn_reflns_point_group_measured_fraction_full   1.000
_diffrn_reflns_point_group_measured_fraction_max   0.996
_diffrn_reflns_theta_full   25.242
_diffrn_reflns_theta_max   28.297
_diffrn_reflns_theta_min   1.893
_exptl_absorpt_coefficient_mu   4.110
_exptl_absorpt_correction_T_max   0.892
_exptl_absorpt_correction_T_min   0.783
_exptl_absorpt_correction_type   multi-scan
_exptl_absorpt_process_details   '(SADABS; Sheldrick, 1996)'
_exptl_crystal_colour   colorless
_exptl_crystal_density_diffrn   2.462
_exptl_crystal_description   prism
_exptl_crystal_F_000   746
_exptl_crystal_size_max   0.200
_exptl_crystal_size_mid   0.050
_exptl_crystal_size_min   0.030
_refine_diff_density_max   0.897
_refine_diff_density_min   -1.133
_refine_diff_density_rms   0.182
_refine_ls_extinction_coef   .
_refine_ls_extinction_method   none
_refine_ls_goodness_of_fit_ref   1.022
_refine_ls_hydrogen_treatment   constr
_refine_ls_matrix_type   full
_refine_ls_number_parameters   325
_refine_ls_number_reflns   5208
_refine_ls_number_restraints   12
_refine_ls_restrained_S_all   1.028
_refine_ls_R_factor_all   0.0487
_refine_ls_R_factor_gt   0.0329
_refine_ls_shift/su_max   0.001
_refine_ls_shift/su_mean   0.000
_refine_ls_structure_factor_coef   Fsqd
_refine_ls_weighting_details
'w=1/[\s^2^(Fo^2^)+(0.0284P)^2^+1.9434P] where P=(Fo^2^+2Fc^2^)/3'
_refine_ls_weighting_scheme   calc
_refine_ls_wR_factor_gt   0.0659
_refine_ls_wR_factor_ref   0.0720
_reflns_Friedel_coverage   0.000
_reflns_Friedel_fraction_full   .
_reflns_Friedel_fraction_max   .
_reflns_number_gt   4122
_reflns_number_total   5208
_reflns_threshold_expression   'I > 2\s(I)'
_cod_data_source_file   suppl_ncrs-2015-0125_suppl.cif
_cod_data_source_block   a
_cod_database_code   8106852
_shelx_space_group_comment
;
The symmetry employed for this shelxl refinement is uniquely defined
by the following loop, which should always be used as a source of
symmetry information in preference to the above space-group names.
They are only intended as comments.
;
_shelx_estimated_absorpt_t_min   0.494
_shelx_estimated_absorpt_t_max   0.821
_shelxl_version_number   2013-4
_shelx_res_file
;
REM  c:\frames\guest\201011R =  New: P-1 REM R1 =  0.0328 for    4122
Fo > 4sig(Fo)  and  0.0487 for all    5208 data REM    325 parameters
refined using     12 restraints REM Instructions for potential
hydrogen bonds REM Highest difference peak  0.897,  deepest hole
-1.133,  1-sigma level  0.182 TITL c:\frames\guest\201011R =  New: P-1
CELL 0.71073 9.2405 10.6952 10.8307 86.239 84.014 81.367 ZERR 1.0000
0.0001 0.0001 0.0001 0.001 0.001 0.001 LATT 1 SFAC C O H LA UNIT 30 38
34 4 MERG 2 FMAP 2 GRID PLAN 20 TEMP 23 SIZE 0.2 0.05 0.05 BOND $H
HTAB HTAB O18 O17 EQIV $1 x-1, y, z HTAB O18 O6_$1 EQIV $2 -x+2, -y-1,
-z+1 HTAB O16 O11_$2 EQIV $3 -x+1, -y-1, -z+1 HTAB O16 O10_$3 HTAB O16
O19_$3 HTAB O14 O17 EQIV $4 -x+1, -y-1, -z+2 HTAB O14 O16_$4 HTAB O15
O18 HTAB O15 O12_$1 EQIV $5 x, y, z+1 HTAB O13 O19_$5 HTAB O13 O2_$4
EQIV $6 -x+2, -y-1, -z+2 HTAB O13 O4_$6 HTAB O19 O10 EQIV $7 -x+1,
-y-2, -z+1 HTAB O19 O17_$7 EQIV $8 x-1, y, z+1 HTAB O17 O11_$8 ISOR
0.001 O17 O18 HTAB O18 O17 HTAB O18 O6_$1 HTAB O16 O11_$2 HTAB O16
O19_$3 HTAB O14 O17 HTAB O14 O16_$4 HTAB O15 O18 HTAB O15 O12_$1 HTAB
O13 O19_$5 HTAB O13 O2_$4 HTAB O13 O4_$6 HTAB O19 O10 HTAB O19 O17_$7
HTAB O17 O11_$8 HTAB O18 O17 HTAB O18 O6_$1 HTAB O16 O11_$2 HTAB O16
O19_$3 HTAB O14 O17 HTAB O14 O16_$4 HTAB O15 O18 HTAB O15 O12_$1 HTAB
O13 O19_$5 HTAB O13 O2_$4 HTAB O13 O4_$6 HTAB O19 O10 HTAB O19 O17_$7
HTAB O17 O11_$8 HTAB O18 O17 HTAB O18 O6_$1 HTAB O16 O11_$2 HTAB O16
O19_$3 HTAB O14 O17 HTAB O14 O16_$4 HTAB O15 O18 HTAB O15 O12_$1 HTAB
O13 O19_$5 HTAB O13 O2_$4 HTAB O13 O4_$6 HTAB O19 O10 HTAB O19 O17_$7
HTAB O17 O11_$8 HTAB O18 O17 HTAB O18 O6_$1 HTAB O16 O11_$2 HTAB O16
O19_$3 HTAB O14 O17 HTAB O14 O16_$4 HTAB O15 O18 HTAB O15 O12_$1 HTAB
O13 O19_$5 HTAB O13 O2_$4 HTAB O13 O4_$6 HTAB O19 O10 HTAB O19 O17_$7
HTAB O17 O11_$8 HTAB O18 O17 HTAB O18 O6_$1 HTAB O16 O11_$2 HTAB O16
O19_$3 HTAB O14 O17 HTAB O14 O16_$4 HTAB O15 O18 HTAB O15 O12_$1 HTAB
O13 O19_$5 HTAB O13 O2_$4 HTAB O13 O4_$6 HTAB O19 O10 HTAB O19 O17_$7
HTAB O17 O11_$8 HTAB O18 O17 HTAB O18 O6_$1 HTAB O16 O11_$2 HTAB O16
O19_$3 HTAB O14 O17 HTAB O14 O16_$4 HTAB O15 O18 HTAB O15 O12_$1 HTAB
O13 O19_$5 HTAB O13 O2_$4 HTAB O13 O4_$6 HTAB O19 O10 HTAB O19 O17_$7
HTAB O17 O11_$8 L.S. 10 ACTA WGHT    0.028400    1.943400 FVAR
0.12141 LA1   4    0.521991   -0.322918    0.686032    11.00000
0.00909    0.01237 =          0.01087    0.00005   -0.00156   -0.00084
LA2   4    0.530715   -0.760164    0.719510    11.00000    0.01112
0.01226 =          0.01265    0.00004    0.00025   -0.00167 C1    1
0.755815   -0.384802    0.863841    11.00000    0.01631    0.01810 =
0.01517    0.00224   -0.00477   -0.00049 C2    1    0.880188
-0.440603    0.938300    11.00000    0.00997    0.01201 =
0.01282    0.00063   -0.00249   -0.00003 C3    1    1.022866
-0.444382    0.882370    11.00000    0.01058    0.02142 =
0.01200    0.00365   -0.00152   -0.00051 AFIX  43 H3    3    1.038766
-0.406376    0.803375    11.00000   -1.20000 AFIX   0 C4    1
1.142511   -0.504050    0.942451    11.00000    0.00827    0.01435 =
0.01299   -0.00238   -0.00094    0.00106 C5    1    1.290510
-0.511003    0.865804    11.00000    0.00948    0.02583 =
0.00939    0.00376   -0.00337    0.00283 C6    1    0.781919
-0.620929    0.651280    11.00000    0.01224    0.01481 =
0.01085    0.00102   -0.00172   -0.00279 C7    1    0.897323
-0.560257    0.573283    11.00000    0.01140    0.01579 =
0.01405   -0.00459   -0.00138   -0.00220 C8    1    1.042895
-0.582665    0.598482    11.00000    0.01393    0.01345 =
0.01317    0.00071   -0.00298   -0.00213 AFIX  43 H8    3    1.071165
-0.638820    0.663785    11.00000   -1.20000 AFIX   0 C9    1
1.146715   -0.521500    0.526491    11.00000    0.00767    0.01411 =
0.01663   -0.00508   -0.00381    0.00067 C10   1    1.302564
-0.532696    0.559565    11.00000    0.01079    0.01576 =
0.00894    0.00254   -0.00022   -0.00099 C11   1    0.735796
-0.849153    0.421478    11.00000    0.00843    0.01388 =
0.01786    0.00107   -0.00119   -0.00257 C12   1    0.871664
-0.927374    0.465011    11.00000    0.01107    0.01215 =
0.01461   -0.00117   -0.00012    0.00162 C13   1    1.007031
-0.908444    0.404729    11.00000    0.01862    0.01474 =
0.01530    0.00424   -0.00221    0.00048 AFIX  43 H13   3    1.011564
-0.846092    0.340996    11.00000   -1.20000 AFIX   0 C14   1
1.136551   -0.981365    0.438079    11.00000    0.01224    0.01581 =
0.00790   -0.00455   -0.00236    0.00046 C15   1    1.281161
-0.953423    0.369987    11.00000    0.01148    0.01455 =
0.00963    0.00353   -0.00334    0.00168 AFIX   3 H18A  3    0.111601
-0.879573    0.863227    11.00000   -1.50000 H18B  3   -0.048399
-0.837793    0.766477    11.00000   -1.50000 H16A  3    0.560981
-0.078743    0.815157    11.00000   -1.20000 H16B  3    0.377221
-0.103883    0.842627    11.00000   -1.20000 H14A  3    0.336691
-0.845743    0.919057    11.00000   -1.20000 H14B  3    0.457591
-0.876093    1.000217    11.00000   -1.20000 H15A  3    0.236561
-0.884243    0.719047    11.00000   -1.20000 H15B  3    0.327321
-0.873183    0.581217    11.00000   -1.20000 H13A  3    0.694251
-0.735963    0.931187    11.00000   -1.20000 H13B  3    0.548881
-0.647973    0.973877    11.00000   -1.20000 H19A  3    0.841011
-0.863633    0.130637    11.00000   -1.20000 H19B  3    0.878741
-0.922963    0.003867    11.00000   -1.20000 H17A  3    0.205471
-0.949473    1.124467    11.00000   -4.00000 H17B  3    0.136341
-0.851963    1.030307    11.00000   -3.00000 AFIX   0 O1    2
0.780729   -0.322190    0.764628    11.00000    0.01730    0.04223 =
0.02294    0.01659   -0.00595   -0.00407 O2    2    0.628100
-0.408971    0.900684    11.00000    0.01113    0.03837 =
0.02259    0.00789   -0.00400   -0.00409 O3    2    1.335037
-0.614653    0.817176    11.00000    0.03133    0.02478 =
0.02448   -0.00049    0.00672    0.00913 O4    2    1.347400
-0.412291    0.848170    11.00000    0.01920    0.03945 =
0.01689    0.00358   -0.00006   -0.01535 O5    2    0.653345
-0.556524    0.669497    11.00000    0.01047    0.01668 =
0.01655    0.00022   -0.00061   -0.00124 O6    2    0.807821
-0.732398    0.692658    11.00000    0.01352    0.01698 =
0.02788    0.00643   -0.00094   -0.00064 O7    2    1.341780
-0.438653    0.597571    11.00000    0.01778    0.01903 =
0.01504   -0.00218   -0.00329   -0.00445 O8    2    1.383121
-0.640895    0.545301    11.00000    0.01579    0.01417 =
0.01418   -0.00332   -0.00189    0.00377 O9    2    0.623853
-0.822379    0.498868    11.00000    0.01193    0.02013 =
0.01890   -0.00188    0.00059    0.00206 O10   2    0.735807
-0.813117    0.309983    11.00000    0.01996    0.02552 =
0.01399    0.00145   -0.00097    0.00721 O11   2    1.329595
-1.013962    0.273316    11.00000    0.01732    0.01596 =
0.01851   -0.00215    0.00337   -0.00160 O12   2    1.341030
-0.869485    0.409249    11.00000    0.02156    0.02007 =
0.02062    0.00053   -0.00225   -0.01167 O13   2    0.612194
-0.684729    0.918229    11.00000    0.03014    0.06374 =
0.01898   -0.01132    0.00235   -0.01706 O14   2    0.430131
-0.875213    0.918004    11.00000    0.04592    0.02957 =
0.01962   -0.00057    0.00262   -0.00531 O15   2    0.333662
-0.884476    0.668794    11.00000    0.03051    0.03412 =
0.02326    0.00061   -0.00757   -0.01603 O16   2    0.480160
-0.141913    0.840666    11.00000    0.02422    0.02390 =
0.02512   -0.00682    0.00596   -0.00704 O17   2    0.174216
-0.933401    1.042075    11.00000    0.12601    0.13202 =
0.12537   -0.00179   -0.01638   -0.02230 O18   2    0.060664
-0.866451    0.793819    11.00000    0.06915    0.08235 =
0.07647    0.00385   -0.01181   -0.00482 O19   2    0.849023
-0.834811    0.049382    11.00000    0.13864    0.08743 =
0.07054   -0.01644    0.01812    0.02266 HKLF 4 REM
c:\frames\guest\201011R =  New: P-1 REM R1 =  0.0329 for    4122 Fo >
4sig(Fo)  and  0.0487 for all    5208 data REM    325 parameters
refined using     12 restraints END WGHT      0.0284      1.9434 REM
Instructions for potential hydrogen bonds HTAB O18 O17 HTAB O18 O6_$1
HTAB O16 O11_$2 HTAB O16 O19_$3 HTAB O14 O17 HTAB O14 O16_$4 HTAB O15
O18 HTAB O15 O12_$1 HTAB O13 O19_$5 HTAB O13 O2_$4 HTAB O13 O4_$6 HTAB
O19 O10 HTAB O19 O17_$7 HTAB O17 O11_$8 REM Highest difference peak
0.897,  deepest hole -1.133,  1-sigma level  0.182 Q1    1   0.0670
-0.8106  0.8256  11.00000  0.05    0.90 Q2    1   0.5908 -0.7760
0.7786  11.00000  0.05    0.88 Q3    1   0.6351 -0.3187  0.6594
11.00000  0.05    0.80 Q4    1   0.1623 -0.9040  1.0482  11.00000
0.05    0.77 Q5    1   0.4736 -0.2616  0.7210  11.00000  0.05    0.73
Q6    1   0.0446 -0.9002  0.7851  11.00000  0.05    0.72 Q7    1
0.4474 -0.3384  0.7644  11.00000  0.05    0.71 Q8    1   0.3543
-0.8059  0.6971  11.00000  0.05    0.69 Q9    1   1.0850 -0.4665
0.9053  11.00000  0.05    0.67 Q10   1   0.4795 -0.7684  0.8145
11.00000  0.05    0.66 Q11   1   0.5157 -0.3965  0.8376  11.00000
0.05    0.66 Q12   1   0.0652 -0.8866  0.9619  11.00000  0.05    0.65
Q13   1   0.5366 -0.4152  0.6543  11.00000  0.05    0.65 Q14   1
0.9364 -0.8774  0.0606  11.00000  0.05    0.63 Q15   1   0.1665
-0.7793  1.0905  11.00000  0.05    0.63 Q16   1   1.0104 -1.0488
0.3704  11.00000  0.05    0.62 Q17   1   0.5939 -0.7409  0.4566
11.00000  0.05    0.61 Q18   1   0.6853 -0.6606  0.8643  11.00000
0.05    0.61 Q19   1   0.5922 -0.8146  0.6809  11.00000  0.05    0.61
Q20   1   0.0824 -0.7720  0.9013  11.00000  0.05    0.60
;
_shelx_res_checksum   18341
_shelx_hkl_file
;
-1   0   0  723.89   20.85    1   0   0  750.00   20.65    1   0   0
742.24   19.43    1   0   0  757.60   20.19   -2   0   0  180.81
4.79   -2   0   0  175.17    5.94   -2   0   0  178.41    4.92    2
0   0  187.86    5.88    2   0   0  178.11    5.55    2   0   0
175.22    5.72    2   0   0  178.48    5.54   -3   0   0  113.29
3.38   -3   0   0  114.10    4.73   -3   0   0  107.85    4.27    3
0   0  112.30    4.05    3   0   0  121.00    4.53    3   0   0
110.03    4.27    3   0   0  115.64    5.01    3   0   0  112.31
4.42   -4   0   0   72.37    3.48   -4   0   0   68.88    3.50   -4
0   0   68.17    2.49   -4   0   0   68.30    3.77    4   0   0
72.81    3.44    4   0   0   74.10    4.14    4   0   0   70.35
3.05    4   0   0   61.09    3.37   -5   0   0  144.89    6.23   -5
0   0  142.50    5.94   -5   0   0  145.87    6.43   -5   0   0
146.29    4.74    5   0   0  149.66    7.04    5   0   0  145.10
5.91    5   0   0  141.98    6.15    5   0   0  160.09    5.61   -6
0   0  179.38    7.80   -6   0   0  180.88    7.61   -6   0   0
175.54    5.82   -6   0   0  176.00    7.28    6   0   0  174.61
8.43    6   0   0  176.45    7.24    6   0   0  185.46    7.66   -7
0   0   59.14    4.10   -7   0   0   61.75    3.06   -7   0   0
58.70    4.18   -7   0   0   62.04    4.51    7   0   0   61.72
4.29    7   0   0   62.47    5.23    7   0   0   54.85    3.90   -8
0   0   31.94    3.55   -8   0   0   38.33    3.92    8   0   0
34.95    4.44    8   0   0   39.90    3.88    8   0   0   32.13
3.47   -9   0   0   -0.91    1.05   -9   0   0    0.69    1.51    9
0   0   -0.02    1.18    9   0   0   -0.43    1.51    9   0   0
1.24    1.37  -10   0   0    2.16    1.79  -10   0   0    4.33    2.07
10   0   0    1.13    2.18   10   0   0    7.48    2.37   10   0   0
5.56    2.14  -11   0   0    2.39    1.91  -11   0   0    1.59    2.00
11   0   0    6.60    3.02   11   0   0    5.95    2.51   11   0   0
-0.14    1.53  -12   0   0   15.61    3.66  -12   0   0   14.38
3.67   12   0   0   15.27    3.62   12   0   0   16.26    4.27   12
0   0   19.71    4.06   11  -1   0    2.11    2.06   11  -1   0
2.03    2.10   11  -1   0   -0.22    1.57  -11   1   0    0.35    1.79
-11   1   0   -1.39    1.41   10  -1   0   -0.57    1.33   10  -1   0
0.98    1.99   10  -1   0    0.83    1.71  -10   1   0    1.91    1.58
-10   1   0    0.48    1.72    9  -1   0    2.18    1.63    9  -1   0
-0.41    1.17    9  -1   0    2.73    1.99   -9   1   0    1.74
1.54   -9   1   0    2.08    1.56    8  -1   0    1.28    1.38    8
-1   0    1.60    1.89    8  -1   0   -0.26    0.96   -8   1   0
2.85    1.63   -8   1   0   -0.66    1.07    7  -1   0    6.54    1.87
7  -1   0    8.97    1.94    7  -1   0    8.54    2.39   -7   1   0
7.31    1.29   -7   1   0    9.38    2.25   -7   1   0    9.52    2.11
6  -1   0    0.50    0.99    6  -1   0    0.56    0.89    6  -1   0
-1.68    1.28   -6   1   0   -0.74    0.82   -6   1   0    0.52
1.23   -6   1   0   -0.21    0.85   -6   1   0   -0.03    0.62    5
-1   0    0.74    0.83    5  -1   0   -0.07    0.64    5  -1   0
0.34    0.60    5  -1   0    0.73    1.20   -5   1   0    0.05    0.84
-5   1   0    0.23    0.78   -5   1   0   -0.63    0.43   -5   1   0
0.08    0.93    4  -1   0   20.31    2.34    4  -1   0   20.43    1.59
4  -1   0   26.92    2.27    4  -1   0   20.51    1.58    4  -1   0
20.56    1.88   -4   1   0   20.02    1.22   -4   1   0   23.39
2.08   -4   1   0   20.35    2.05   -4   1   0   23.61    1.89    3
-1   0    0.69    0.64    3  -1   0    0.59    0.58    3  -1   0
0.35    0.53    3  -1   0    0.03    0.44    3  -1   0    3.27    1.23
-3   1   0    0.45    0.39   -3   1   0    0.09    0.65   -3   1   0
0.27    0.59   -3   1   0    0.59    0.72   -3   1   0    0.68    0.52
2  -1   0    2.81    0.56    2  -1   0    3.03    0.50    2  -1   0
2.08    0.68    2  -1   0    2.58    0.65   -2   1   0    2.91    0.60
-2   1   0    2.67    0.47   -2   1   0    2.68    0.57   -2   1   0
2.15    0.72   -2   1   0    2.63    0.40    1  -1   0    7.51    0.75
1  -1   0    8.45    0.71   -1   1   0    8.28    0.45   -1   1   0
8.32    0.45   -1   1   0    7.19    0.72   -1   1   0    7.11    0.60
0  -1   0   85.00    2.68    0  -1   0   87.57    2.45    0  -1   0
86.27    2.87    0  -1   0   88.43    2.51    0   1   0   88.02
2.45    0   1   0   88.75    2.52    0   1   0   88.47    2.86    0
1   0   86.94    2.70   -1  -1   0   50.39    1.68   -1  -1   0
45.23    2.14   -1  -1   0   47.09    1.52    1   1   0   48.57
1.49    1   1   0   47.58    1.61    1   1   0   46.77    1.76    1
1   0   45.71    2.13    1   1   0   49.48    1.80   -2  -1   0
6.65    1.13   -2  -1   0    6.19    0.53   -2  -1   0    4.98    0.69
2   1   0    5.41    0.77    2   1   0    6.26    0.44    2   1   0
6.25    0.77    2   1   0    5.77    1.04   -3  -1   0   -0.78    0.89
-3  -1   0   -0.27    0.33   -3  -1   0   -0.16    0.56    3   1   0
-0.23    0.52    3   1   0   -0.25    0.86    3   1   0    0.75
0.59   -4  -1   0   20.25    2.35   -4  -1   0   18.97    1.18   -4
-1   0   18.60    1.73    4   1   0   15.85    2.13    4   1   0
21.08    1.87    4   1   0   22.27    1.88   -5  -1   0   11.20
2.25   -5  -1   0    9.57    1.02   -5  -1   0   12.26    1.72    5
1   0   11.46    2.15    5   1   0    9.78    1.59    5   1   0
10.02    1.58   -6  -1   0   23.87    2.54   -6  -1   0   25.42
3.18   -6  -1   0   24.07    1.71    6   1   0   30.01    2.81    6
1   0   23.14    2.54    6   1   0   25.47    3.31   -7  -1   0
23.52    2.72   -7  -1   0   20.64    1.81   -7  -1   0   21.15
3.23   -7  -1   0   21.94    2.76    7   1   0   27.58    3.77    7
1   0   20.02    2.71    7   1   0   20.90    2.69   -8  -1   0
11.38    1.63   -8  -1   0    7.57    2.49   -8  -1   0   16.74
2.81   -8  -1   0    9.55    2.24    8   1   0    9.75    2.19    8
1   0   11.08    2.42    8   1   0    6.24    2.41   -9  -1   0
0.09    1.32   -9  -1   0    3.84    1.80    9   1   0    1.49    1.37
9   1   0    2.17    1.68    9   1   0    1.36    1.80  -10  -1   0
4.67    2.11  -10  -1   0    3.11    1.83   10   1   0   -0.44    1.66
10   1   0    1.62    1.60   10   1   0    1.65    1.75  -11  -1   0
1.20    1.56  -11  -1   0   -0.88    1.49   11   1   0    0.09    1.96
11   1   0   -0.21    1.53   11   1   0    1.12    1.78  -12  -1   0
3.90    2.47  -12  -1   0    9.03    2.96   12   1   0   12.48    3.50
12   1   0    3.23    2.19   12   1   0    9.81    3.65   11  -2   0
80.31    7.17   11  -2   0   79.18    6.64   11  -2   0   86.74
7.47  -11   2   0   83.84    6.94  -11   2   0   69.77    6.71   10
-2   0   48.34    5.56   10  -2   0   42.24    4.67   10  -2   0
50.55    5.43  -10   2   0   37.02    4.81  -10   2   0   35.88
4.56    9  -2   0   27.03    4.25    9  -2   0   24.50    3.77    9
-2   0   22.57    3.37   -9   2   0   23.40    3.55   -9   2   0
21.30    3.58    8  -2   0    7.37    2.03    8  -2   0    5.46
2.24    8  -2   0    8.11    2.28   -8   2   0    6.47    2.03   -8
2   0    6.23    2.10    7  -2   0   11.86    2.23    7  -2   0
13.64    2.87    7  -2   0   10.95    2.34   -7   2   0   15.27
2.62   -7   2   0   10.35    2.31    6  -2   0    8.06    1.95    6
-2   0   10.35    1.90    6  -2   0   13.90    2.61   -6   2   0
11.05    1.34   -6   2   0   10.09    2.11   -6   2   0   10.68
1.98    5  -2   0    4.34    1.39    5  -2   0    2.90    1.06    5
-2   0    4.69    1.62    5  -2   0    3.81    1.01   -5   2   0
4.29    1.00   -5   2   0    4.72    1.41   -5   2   0    4.10    1.25
-5   2   0    3.08    0.98   -5   2   0    5.25    0.91    4  -2   0
71.15    4.18    4  -2   0   76.96    3.79    4  -2   0   76.89
4.07    4  -2   0   81.88    2.90   -4   2   0   73.27    3.88   -4
2   0   79.10    3.69   -4   2   0   75.89    3.00   -4   2   0
74.09    2.82    3  -2   0  287.45    7.97    3  -2   0  273.90
8.92    3  -2   0  264.98    9.26    3  -2   0  264.34    8.77   -3
2   0  279.95    7.60   -3   2   0  278.32    8.02   -3   2   0
274.51    8.95   -3   2   0  272.99    8.96   -3   2   0  284.88
9.35    2  -2   0  289.55    8.89    2  -2   0  287.59    8.78   -2
2   0  288.82    9.02   -2   2   0  294.02    7.83   -2   2   0
290.93    8.90   -2   2   0  290.72    9.28    1  -2   0  381.54
11.02    1  -2   0  378.03    9.88    1  -2   0  388.26   10.84    1
-2   0  380.71    9.88   -1   2   0  386.01   10.13   -1   2   0
395.40   10.96   -1   2   0  389.44   10.86   -1   2   0  374.86
11.36   -1   2   0  371.76   11.72   -1   2   0  390.90   10.03    0
-2   0   89.84    3.37    0  -2   0   92.00    2.92    0  -2   0
90.42    2.76    0   2   0   92.09    3.38    0   2   0   88.56
2.80    0   2   0   90.22    2.95    0   2   0   93.76    3.24    0
2   0   96.93    3.37   -1  -2   0  634.68   16.42   -1  -2   0
608.17   16.12   -1  -2   0  625.99   18.56    1   2   0  641.49
18.50    1   2   0  637.97   17.02    1   2   0  622.88   16.13    1
2   0  642.21   17.57   -2  -2   0  369.09   11.99   -2  -2   0
372.80    9.82    2   2   0  374.24    9.70    2   2   0  366.61
9.97    2   2   0  369.59   10.63    2   2   0  356.83   10.81   -3
-2   0  427.97   14.51   -3  -2   0  450.42   12.67   -3  -2   0
445.78   11.77    3   2   0  447.02   12.93    3   2   0  436.80
14.03    3   2   0  438.97   11.45    3   2   0  441.18   13.18   -4
-2   0  577.14   16.30   -4  -2   0  562.06   15.04   -4  -2   0
523.14   18.37    4   2   0  581.86   17.02    4   2   0  577.17
18.15    4   2   0  568.96   14.34   -5  -2   0  148.82    4.90   -5
-2   0  150.44    5.88   -5  -2   0  157.17    7.47    5   2   0
146.51    6.10    5   2   0  135.51    5.95    5   2   0  145.27
6.94   -6  -2   0   91.12    5.82   -6  -2   0   88.88    3.59   -6
-2   0   91.05    4.63    6   2   0   85.93    5.51    6   2   0
89.37    4.75    6   2   0   85.01    4.61   -7  -2   0   81.66
5.89   -7  -2   0   81.42    4.66   -7  -2   0   77.99    3.60    7
2   0   78.47    4.74    7   2   0   75.63    5.64    7   2   0
86.05    4.89   -8  -2   0   37.48    3.69   -8  -2   0   33.75
4.40   -8  -2   0   33.19    2.46   -8  -2   0   36.22    3.51    8
2   0   33.17    3.56    8   2   0   30.09    4.22    8   2   0
36.65    3.76   -9  -2   0   79.90    5.48   -9  -2   0   72.42
5.08   -9  -2   0   76.15    3.99   -9  -2   0   77.22    6.44    9
2   0   71.41    5.20    9   2   0   69.23    6.36    9   2   0
69.96    5.05  -10  -2   0   37.69    4.27  -10  -2   0   43.60
4.59   10   2   0   43.55    4.61   10   2   0   35.99    4.37   10
2   0   41.27    5.31  -11  -2   0    8.16    2.46  -11  -2   0
5.42    2.35   11   2   0    9.19    2.73   11   2   0    7.50    2.55
11   2   0    1.32    2.35  -12  -2   0    7.90    3.03  -12  -2   0
7.33    2.69   12   2   0    4.65    3.16   12   2   0    4.72    2.38
12   2   0    3.89    2.55   11  -3   0    4.21    2.43  -11   3   0
2.28    2.05  -11   3   0    0.59    2.04   10  -3   0    4.94    2.44
10  -3   0    2.67    1.83  -10   3   0    7.41    2.54  -10   3   0
1.25    1.93    9  -3   0    5.90    2.07    9  -3   0    8.36    2.60
9  -3   0    6.51    2.57   -9   3   0    7.61    2.28   -9   3   0
10.76    2.77    8  -3   0    0.56    1.42    8  -3   0   -0.28
1.10    8  -3   0   -0.35    1.47   -8   3   0    2.65    1.53   -8
3   0   -0.86    1.13    7  -3   0    1.58    1.68    7  -3   0
-0.67    1.01    7  -3   0   -1.33    0.74   -7   3   0    0.52
1.25   -7   3   0   -1.26    1.00    6  -3   0    2.66    1.24    6
-3   0    0.96    1.58    6  -3   0    4.27    1.60   -6   3   0
1.18    1.17   -6   3   0    3.10    1.02   -6   3   0    3.50    1.54
5  -3   0   12.66    2.25    5  -3   0   14.07    2.01   -5   3   0
18.33    2.35   -5   3   0   17.12    1.52   -5   3   0   14.97
2.38    4  -3   0   -0.11    0.62    4  -3   0    0.50    1.10   -4
3   0    1.06    0.87   -4   3   0    1.52    1.00   -4   3   0
1.96    0.85   -4   3   0    1.31    0.69    3  -3   0   12.03    1.62
3  -3   0    7.80    1.49    3  -3   0    9.41    1.38   -3   3   0
10.80    1.65   -3   3   0    8.76    1.29   -3   3   0   11.21
1.07   -3   3   0    9.40    1.49   -3   3   0    9.43    1.40    2
-3   0    3.49    0.94    2  -3   0    3.00    0.91   -2   3   0
1.49    0.77   -2   3   0    3.32    0.99   -2   3   0    4.91    1.07
-2   3   0    4.86    0.80   -2   3   0    4.42    0.93    1  -3   0
3.41    0.78    1  -3   0    3.60    0.91    1  -3   0    4.84    0.91
1  -3   0    3.46    0.49    1  -3   0    3.22    0.54   -1   3   0
2.71    0.62   -1   3   0    2.11    1.14   -1   3   0    2.73    0.85
-1   3   0    1.07    0.79   -1   3   0    4.41    0.82   -1   3   0
3.17    0.84    0  -3   0    2.68    1.03    0  -3   0    3.13    0.56
0  -3   0    3.26    0.78    0   3   0    3.44    1.18    0   3   0
3.78    0.83    0   3   0    2.49    0.84    0   3   0    2.09    0.80
0   3   0    2.60    0.80   -1  -3   0  308.74    8.72   -1  -3   0
332.00   10.70    1   3   0  318.88    9.06    1   3   0  323.05
10.32    1   3   0  313.17    9.74   -2  -3   0  125.85    4.04   -2
-3   0  128.92    5.77    2   3   0  128.86    4.89    2   3   0
126.64    4.71    2   3   0  125.19    4.64    2   3   0  121.61
4.27   -3  -3   0  189.29    8.28   -3  -3   0  207.61    6.16   -3
-3   0  210.51    6.69    3   3   0  201.99    6.17    3   3   0
203.92    7.59    3   3   0  204.61    7.01    3   3   0  215.98
7.10   -4  -3   0  174.11    7.99   -4  -3   0  176.98    6.18   -4
-3   0  171.73    5.47    4   3   0  174.52    4.95    4   3   0
165.37    6.37    4   3   0  167.04    7.17    4   3   0  164.42
5.09    4   3   0  167.26    6.36   -5  -3   0   60.44    4.81   -5
-3   0   70.15    3.61   -5  -3   0   64.68    2.87    5   3   0
63.00    3.66    5   3   0   71.59    3.83    5   3   0   63.14
4.31   -6  -3   0   70.29    5.61   -6  -3   0   80.06    4.26   -6
-3   0   78.49    3.42    6   3   0   74.95    5.15    6   3   0
75.90    4.33    6   3   0   79.31    4.55   -7  -3   0  119.42
5.96   -7  -3   0  138.78    8.04   -7  -3   0  132.30    5.03    7
3   0  129.31    6.38    7   3   0  129.37    6.34    7   3   0
114.16    7.07   -8  -3   0   23.49    4.15   -8  -3   0   30.39
3.28   -8  -3   0   33.65    2.43    8   3   0   31.65    4.29    8
3   0   30.48    3.43    8   3   0   32.97    3.52   -9  -3   0
29.83    3.57   -9  -3   0   34.23    2.75   -9  -3   0   35.95
4.98    9   3   0   27.41    3.67    9   3   0   33.03    3.86    9
3   0   32.57    4.71  -10  -3   0   62.06    5.39  -10  -3   0
58.35    3.72  -10  -3   0   47.10    4.66   10   3   0   58.17
5.25   10   3   0   50.70    5.86   10   3   0   48.90    4.96  -11
-3   0   18.58    3.52  -11  -3   0   28.11    4.05   11   3   0
26.68    4.11   11   3   0   21.57    4.48   11   3   0   25.74
4.11  -12  -3   0    2.68    2.26  -12  -3   0    8.42    2.76   12
3   0    3.22    2.82   12   3   0    2.59    2.18   12   3   0
9.95    3.13   11  -4   0   40.16    5.20  -11   4   0   42.12    5.92
-11   4   0   45.51    5.66  -11   4   0   57.29    5.92   10  -4   0
51.17    5.27  -10   4   0   56.03    5.75  -10   4   0   57.48
6.25    9  -4   0   60.94    5.26   -9   4   0   57.67    5.87   -9
4   0   72.42    5.94    8  -4   0   89.24    5.70    8  -4   0
84.37    6.11   -8   4   0   83.09    5.85   -8   4   0   90.10
6.33    7  -4   0   70.40    4.76   -7   4   0   85.00    5.78    6
-4   0   13.42    2.32    6  -4   0   13.10    2.64   -6   4   0
9.89    2.30   -6   4   0   11.65    2.34   -6   4   0   11.77    2.23
5  -4   0    7.89    1.98    5  -4   0    3.61    1.36   -5   4   0
6.36    1.21   -5   4   0    5.98    1.85   -5   4   0    5.62    1.61
-5   4   0    6.10    1.60    4  -4   0    0.23    1.16    4  -4   0
0.92    0.87    4  -4   0    2.10    1.10   -4   4   0    0.46    1.01
-4   4   0   -0.52    0.65   -4   4   0    1.77    0.82   -4   4   0
0.56    0.81   -4   4   0    0.70    0.93    3  -4   0   35.36    2.62
3  -4   0   29.70    2.43    3  -4   0   33.21    2.48   -3   4   0
39.43    2.62   -3   4   0   35.41    2.62   -3   4   0   34.75
2.04   -3   4   0   28.28    2.71   -3   4   0   41.61    2.73    2
-4   0    4.72    1.13    2  -4   0    3.90    0.47    2  -4   0
4.98    1.16    2  -4   0    3.86    0.52   -2   4   0    4.54    1.26
-2   4   0    3.46    0.99   -2   4   0    4.78    0.49   -2   4   0
3.93    0.89   -2   4   0    5.65    1.21    1  -4   0   18.37    1.51
1  -4   0   16.96    1.64    1  -4   0   16.24    0.96    1  -4   0
16.63    1.65    1  -4   0   17.72    1.13   -1   4   0   18.12
1.69   -1   4   0   19.67    1.52   -1   4   0   23.28    2.42   -1
4   0   20.14    1.45   -1   4   0   14.61    1.78    0  -4   0
2.68    0.61    0  -4   0    1.54    1.10    0  -4   0    3.87    0.91
0   4   0    5.09    1.02    0   4   0    3.51    0.96    0   4   0
3.78    1.01    0   4   0    3.34    1.29   -1  -4   0   91.35    3.67
-1  -4   0  101.61    4.93   -1  -4   0   94.48    3.39    1   4   0
96.81    4.67    1   4   0  101.17    4.14    1   4   0   91.19
3.73    1   4   0   94.84    4.10   -2  -4   0  106.25    3.74   -2
-4   0  105.43    5.46   -2  -4   0  108.67    4.05    2   4   0
106.31    4.31    2   4   0   99.61    4.34    2   4   0  115.75
4.56    2   4   0   99.24    3.95   -3  -4   0  186.79    8.21   -3
-4   0  188.56    6.29   -3  -4   0  182.65    5.81    3   4   0
189.28    6.78    3   4   0  180.40    6.68    3   4   0  179.06
6.61    3   4   0  180.17    5.95    3   4   0  182.57    7.02   -4
-4   0   94.42    4.12   -4  -4   0   92.72    3.66   -4  -4   0
89.22    5.70    4   4   0   90.15    3.49    4   4   0   96.39
4.51    4   4   0   88.61    4.23    4   4   0   99.59    4.93   -5
-4   0  142.33    5.70   -5  -4   0  139.41    7.75   -5  -4   0
136.74    4.98    5   4   0  138.03    5.95    5   4   0  136.74
6.71    5   4   0  143.01    4.40    5   4   0  125.81    5.88   -6
-4   0   88.23    6.27   -6  -4   0   76.40    4.17   -6  -4   0
71.94    3.44    6   4   0   79.89    5.34    6   4   0   70.98
4.39    6   4   0   71.13    4.33   -7  -4   0   20.92    2.57   -7
-4   0   21.15    1.99   -7  -4   0   23.17    4.15    7   4   0
22.31    2.80    7   4   0   19.64    2.80    7   4   0   23.69
3.50   -8  -4   0   47.74    3.96   -8  -4   0   48.74    5.52   -8
-4   0   44.32    2.92    8   4   0   50.06    5.04    8   4   0
47.01    4.21    8   4   0   50.40    3.96   -9  -4   0   54.54
4.57   -9  -4   0   67.81    6.62   -9  -4   0   55.86    3.55    9
4   0   62.69    4.70    9   4   0   61.97    6.01    9   4   0
58.16    4.93  -10  -4   0   36.81    5.50  -10  -4   0   37.91
4.19  -10  -4   0   36.93    3.18   10   4   0   33.66    5.15   10
4   0   31.41    4.23   10   4   0   27.32    3.89  -11  -4   0
10.35    2.86  -11  -4   0   10.34    2.78   11   4   0    5.20
2.42   11   4   0    7.87    3.05   11   4   0   10.82    2.90  -12
-4   0    0.30    1.87  -12  -4   0    2.16    2.04   12   4   0
-1.33    1.53   12   4   0    2.23    2.50   12   4   0   -0.23
1.91   10  -5   0   13.31    3.13  -10   5   0   13.44    3.25  -10
5   0    7.48    2.60  -10   5   0   11.24    3.34    9  -5   0
43.60    4.65   -9   5   0   46.10    5.22   -9   5   0   33.08
4.29   -9   5   0   33.26    4.83    8  -5   0   92.13    6.04   -8
5   0  105.11    7.11   -8   5   0   98.07    6.17    7  -5   0
87.18    5.57   -7   5   0   86.27    5.55   -7   5   0  107.19
6.35   -7   5   0   89.90    6.25    6  -5   0   11.68    2.38   -6
5   0   10.67    2.23   -6   5   0   13.09    2.64   -6   5   0
11.68    2.67    5  -5   0   21.37    2.69   -5   5   0   16.14
1.82   -5   5   0   19.83    2.62   -5   5   0   15.59    2.57   -5
5   0   19.43    2.93    4  -5   0    2.80    1.48    4  -5   0
5.40    1.55    4  -5   0    4.91    1.56   -4   5   0    1.25    1.33
-4   5   0    4.62    1.55   -4   5   0    4.99    1.24   -4   5   0
3.07    1.32    3  -5   0    0.85    0.91    3  -5   0    0.93    0.90
3  -5   0    4.33    1.30   -3   5   0    3.16    1.34   -3   5   0
3.44    1.04   -3   5   0    5.24    1.37   -3   5   0    3.58    1.15
-3   5   0    3.08    1.18    2  -5   0    9.77    1.68    2  -5   0
6.56    1.43    2  -5   0    7.90    0.91   -2   5   0    7.34    0.81
-2   5   0    9.41    1.79   -2   5   0    6.51    1.18   -2   5   0
8.00    1.53   -2   5   0    9.00    1.60    1  -5   0    4.38    1.10
1  -5   0    4.00    1.09   -1   5   0    4.21    1.28   -1   5   0
4.15    1.17   -1   5   0    4.37    1.06   -1   5   0    3.60    1.57
0  -5   0    9.86    1.74    0  -5   0   13.00    1.51    0  -5   0
11.72    1.08    0   5   0   14.64    1.84    0   5   0   11.19
1.61    0   5   0   13.15    1.48    0   5   0   13.94    2.19   -1
-5   0   58.97    2.56   -1  -5   0   61.93    2.99   -1  -5   0
63.67    4.02    1   5   0   55.07    3.71    1   5   0   55.71
2.92    1   5   0   55.77    3.24    1   5   0   60.39    3.29   -2
-5   0  206.30    8.91   -2  -5   0  217.62    7.05   -2  -5   0
208.09    6.58    2   5   0  214.43    7.61    2   5   0  212.09
7.68    2   5   0  198.92    7.16    2   5   0  209.72    8.20    2
5   0  206.64    6.91   -3  -5   0  310.95   12.20   -3  -5   0
301.69    9.04   -3  -5   0  305.70    9.55    3   5   0  288.10
9.22    3   5   0  297.43   10.34    3   5   0  299.42   10.24    3
5   0  322.94   10.70    3   5   0  296.71   10.17   -4  -5   0
129.95    7.34   -4  -5   0  132.67    5.27    4   5   0  130.64
6.01    4   5   0  121.97    4.68    4   5   0  126.97    5.69    4
5   0  125.53    5.48   -5  -5   0   95.85    4.61   -5  -5   0
91.35    6.60   -5  -5   0  101.72    4.16    5   5   0  102.42
3.78    5   5   0  101.64    4.90    5   5   0   99.58    5.14    5
5   0   96.65    5.54   -6  -5   0  102.02    7.22   -6  -5   0
109.78    4.62   -6  -5   0  112.15    5.33    6   5   0  110.14
5.49    6   5   0  110.97    6.30    6   5   0  102.12    5.56   -7
-5   0  143.90    6.51   -7  -5   0  139.58    5.57   -7  -5   0
137.87    8.74    7   5   0  137.68    7.67    7   5   0  140.39
6.97    7   5   0  126.43    6.56   -8  -5   0  176.37    6.90   -8
-5   0  191.56   10.82   -8  -5   0  181.38    8.01    8   5   0
182.76    9.60    8   5   0  181.00    8.42    8   5   0  174.04
8.53   -9  -5   0  122.31    6.52   -9  -5   0  113.33    8.65   -9
-5   0  114.33    5.37    9   5   0  108.81    6.55    9   5   0
117.84    7.90    9   5   0  109.97    6.76  -10  -5   0   77.89
5.48   10   5   0   78.25    5.86   10   5   0   74.70    5.65   10
5   0   78.12    7.15  -11  -5   0   45.54    4.79   11   5   0
45.92    6.30   11   5   0   48.97    5.53   11   5   0   46.06
5.20   10  -6   0   16.16    3.58  -10   6   0   22.77    4.11  -10
6   0   13.23    3.60  -10   6   0   15.76    3.57    9  -6   0
43.07    4.88   -9   6   0   50.05    5.58   -9   6   0   42.64
4.90   -9   6   0   36.42    5.17    8  -6   0   39.11    4.36   -8
6   0   32.93    4.66   -8   6   0   33.13    4.40   -8   6   0
40.49    4.42    7  -6   0   18.64    3.10   -7   6   0   21.66
3.31   -7   6   0   25.09    3.65   -7   6   0   25.86    3.92    6
-6   0   34.82    3.64   -6   6   0   32.79    4.05   -6   6   0
26.86    3.54   -6   6   0   30.35    3.47    5  -6   0   41.90
3.93    5  -6   0   43.44    3.79   -5   6   0   32.15    3.85   -5
6   0   40.64    3.74   -5   6   0   39.42    3.85   -5   6   0
36.06    2.76    4  -6   0   29.12    3.11    4  -6   0   21.70
2.81   -4   6   0   25.80    2.93   -4   6   0   20.87    2.14   -4
6   0   24.35    2.92   -4   6   0   21.03    3.04    3  -6   0
24.34    2.71    3  -6   0   22.48    2.63   -3   6   0   20.04
2.92   -3   6   0   22.11    2.66   -3   6   0   26.95    2.22   -3
6   0   25.27    2.74    2  -6   0    0.29    0.96    2  -6   0
0.09    0.89    2  -6   0    0.56    0.67   -2   6   0    1.22    1.17
-2   6   0    0.24    0.95   -2   6   0    0.47    0.90   -2   6   0
-0.72    0.84    1  -6   0   10.34    0.85    1  -6   0    8.24
1.56    1  -6   0   12.77    1.95    1  -6   0   10.50    0.94    1
-6   0    9.60    1.62   -1   6   0   11.13    1.58   -1   6   0
10.10    1.83   -1   6   0    9.40    1.89    0  -6   0    1.53
1.25    0  -6   0    0.41    0.54    0  -6   0    1.53    0.85    0
6   0    0.36    0.77    0   6   0   -0.01    0.82    0   6   0
0.44    0.83    0   6   0   -0.51    1.18   -1  -6   0    0.58    0.78
-1  -6   0    0.71    1.40   -1  -6   0    1.17    0.63    1   6   0
2.04    1.06    1   6   0    0.94    0.89    1   6   0   -0.14    1.25
1   6   0    0.17    0.73   -2  -6   0   11.81    1.53   -2  -6   0
9.42    1.22   -2  -6   0    5.03    2.02    2   6   0    9.22    2.06
2   6   0   11.40    1.40    2   6   0    8.28    1.68    2   6   0
8.22    1.58    2   6   0    6.93    1.39   -3  -6   0    0.85    0.85
-3  -6   0    0.08    1.52   -3  -6   0   -0.19    0.51    3   6   0
-0.87    0.77    3   6   0   -0.92    0.63    3   6   0    0.35
0.85    3   6   0    0.43    0.67   -4  -6   0    2.52    1.08   -4
-6   0    3.96    2.15   -4  -6   0    1.71    0.82    4   6   0
2.16    1.26    4   6   0    1.11    0.95    4   6   0    5.06    1.43
4   6   0    0.77    0.84   -5  -6   0    3.54    1.03   -5  -6   0
4.51    1.37   -5  -6   0    1.87    2.19    5   6   0    3.27    1.07
5   6   0    7.11    1.67    5   6   0    5.87    1.48    5   6   0
4.16    1.71   -6  -6   0   31.70    2.88   -6  -6   0   30.12    2.40
-6  -6   0   25.72    4.36    6   6   0   35.34    2.00    6   6   0
24.89    2.79    6   6   0   34.83    3.70    6   6   0   33.78
3.37   -7  -6   0   19.79    4.12   -7  -6   0   18.94    2.05   -7
-6   0   17.77    2.49    7   6   0   21.89    3.38    7   6   0
16.10    2.72    7   6   0   19.00    2.67   -8  -6   0    3.06
1.52   -8  -6   0    0.69    2.44   -8  -6   0    1.40    1.01    8
6   0    3.00    1.91    8   6   0    3.07    1.61    8   6   0
3.00    1.59   -9  -6   0    0.84    2.84   -9  -6   0    2.02    1.58
-9  -6   0    1.23    1.09    9   6   0    0.53    1.86    9   6   0
0.29    1.30    9   6   0   -1.62    1.11  -10  -6   0    1.75    1.69
10   6   0    1.54    1.68   10   6   0   -0.03    1.90   10   6   0
-0.20    1.31   11   6   0    0.11    2.15   11   6   0   -0.75
1.49   11   6   0    2.28    2.03    9  -7   0   63.70    5.87   -9
7   0   59.40    5.80   -9   7   0   54.03    6.45   -9   7   0
61.06    6.28    8  -7   0   73.48    6.03   -8   7   0   75.71
6.16   -8   7   0   80.28    6.66   -8   7   0   91.29    7.03    7
-7   0   67.79    5.15   -7   7   0   65.52    6.13   -7   7   0
64.21    5.30   -7   7   0   59.89    5.42    6  -7   0  118.98
6.76   -6   7   0  124.71    7.55   -6   7   0  117.54    6.70   -6
7   0  108.61    6.68    5  -7   0  112.56    6.38    5  -7   0
106.52    6.16   -5   7   0  105.74    5.08   -5   7   0  108.31
6.33   -5   7   0  100.65    5.99   -5   7   0  109.47    6.77    4
-7   0  193.43    8.41    4  -7   0  187.88    8.26   -4   7   0
182.96    8.90   -4   7   0  176.61    8.09   -4   7   0  171.47
8.09   -4   7   0  182.27    7.02    3  -7   0   87.72    5.06    3
-7   0   81.76    4.89   -3   7   0   82.34    4.15   -3   7   0
78.36    5.34   -3   7   0   85.13    5.03   -3   7   0   87.12
5.06    2  -7   0    9.09    1.94    2  -7   0   11.47    2.14   -2
7   0    8.89    2.08   -2   7   0    7.94    1.85   -2   7   0
10.40    1.74   -2   7   0    6.73    1.71    1  -7   0    9.87
1.83    1  -7   0   12.74    1.97   -1   7   0   13.12    2.15   -1
7   0    8.87    1.68   -1   7   0   13.75    2.32    0  -7   0
-0.37    0.46    0  -7   0    0.33    0.81    0  -7   0    0.05
1.42    0   7   0    0.78    1.00    0   7   0    1.67    1.19    0
7   0   -1.47    0.93   -1  -7   0    3.94    1.28   -1  -7   0
4.09    0.98   -1  -7   0    4.61    1.93    1   7   0    4.77    1.52
1   7   0    2.88    1.26    1   7   0    5.53    1.45   -2  -7   0
7.77    2.37   -2  -7   0    7.81    1.54   -2  -7   0    9.32    1.32
2   7   0    8.07    1.31    2   7   0   10.01    1.97    2   7   0
8.33    1.60    2   7   0    9.55    1.85   -3  -7   0    2.12    0.92
-3  -7   0    4.56    1.26   -3  -7   0    3.47    2.24    3   7   0
1.42    1.19    3   7   0    4.63    1.37    3   7   0    4.14    1.28
3   7   0    3.92    1.52   -4  -7   0   46.84    5.17   -4  -7   0
50.17    2.90   -4  -7   0   53.37    3.30    4   7   0   45.20
3.44    4   7   0   52.24    3.61    4   7   0   43.98    3.72    4
7   0   47.18    3.05   -5  -7   0   87.92    4.66   -5  -7   0
84.56    4.16   -5  -7   0   92.05    6.95    5   7   0   89.04
5.24    5   7   0   94.37    4.14    5   7   0   91.25    5.33    5
7   0   93.41    5.14   -6  -7   0  156.82    9.64   -6  -7   0
159.65    6.29   -6  -7   0  169.54    7.05    6   7   0  161.86
7.98    6   7   0  153.74    7.22    6   7   0  138.94    7.34    6
7   0  158.80    5.55   -7  -7   0  153.49    7.05   -7  -7   0
159.30    6.42   -7  -7   0  151.83    9.78    7   7   0  156.21
7.56    7   7   0  160.69    8.42    7   7   0  147.26    7.69   -8
-7   0   86.55    4.55   -8  -7   0   83.68    5.15   -8  -7   0
81.35    7.84    8   7   0   81.02    5.46    8   7   0   80.00
6.18    8   7   0   76.65    5.52    9   7   0   49.22    5.52    9
7   0   51.28    4.89    9   7   0   47.44    4.97   10   7   0
71.68    6.26   10   7   0   65.26    5.79   10   7   0   84.91
7.47   11   7   0   84.23    8.02    9  -8   0    1.33    2.05   -9
8   0    5.61    2.74   -9   8   0    3.91    2.38    8  -8   0
8.42    2.77   -8   8   0   10.40    2.88   -8   8   0   11.56    3.14
-8   8   0   14.61    3.67    7  -8   0    4.02    2.06   -7   8   0
3.43    2.16   -7   8   0    0.65    1.69   -7   8   0    1.79    2.02
6  -8   0    1.00    1.42   -6   8   0   -0.18    1.41   -6   8   0
-0.05    1.43   -6   8   0   -0.93    1.32    5  -8   0    3.06
1.71    5  -8   0    4.29    1.88   -5   8   0    4.38    1.90   -5
8   0    3.33    1.94   -5   8   0    5.62    2.06    4  -8   0
0.70    1.30    4  -8   0    1.11    1.28   -4   8   0    0.73    1.33
-4   8   0    0.42    1.29   -4   8   0    1.50    1.25   -4   8   0
-0.83    1.20    3  -8   0    0.57    1.28    3  -8   0   -0.56
1.12   -3   8   0   -1.49    1.06   -3   8   0    1.02    1.28   -3
8   0    0.33    1.09   -3   8   0    3.48    1.69    2  -8   0
-0.07    1.21    2  -8   0    0.91    1.28   -2   8   0    0.42
1.18   -2   8   0    1.71    1.28   -2   8   0    0.74    1.30   -2
8   0    0.96    1.39    1  -8   0    7.00    1.72   -1   8   0
8.57    1.93   -1   8   0    7.64    2.06   -1   8   0    9.96    1.90
-1   8   0   12.01    2.39    0  -8   0   -1.20    1.34    0  -8   0
0.32    0.72    0  -8   0    0.81    1.07    0   8   0    0.15    1.07
0   8   0   -0.42    1.08    0   8   0   -0.19    0.96   -1  -8   0
0.38    1.68   -1  -8   0    0.14    0.88   -1  -8   0   -0.59    0.64
1   8   0    1.85    1.19    1   8   0   -0.80    0.96    1   8   0
-0.81    0.88   -2  -8   0    2.00    1.15   -2  -8   0    1.14
1.93   -2  -8   0    0.10    0.78    2   8   0    1.23    1.10    2
8   0    1.91    1.27    2   8   0    0.77    1.18   -3  -8   0
2.42    1.15   -3  -8   0    8.45    2.75   -3  -8   0    2.23    1.01
3   8   0    3.69    1.46    3   8   0    3.52    1.51    3   8   0
2.31    1.34   -4  -8   0    0.02    0.73   -4  -8   0   -0.35    0.86
-4  -8   0    1.57    2.17    4   8   0    0.23    1.06    4   8   0
-0.93    1.00    4   8   0   -0.78    1.04    4   8   0   -0.25
1.07   -5  -8   0    1.73    2.40   -5  -8   0    1.55    0.92   -5
-8   0    0.25    0.98    5   8   0    0.47    1.00    5   8   0
0.69    1.05    5   8   0    0.79    1.15    5   8   0   -0.47    1.15
-6  -8   0   -0.69    2.15   -6  -8   0    1.17    0.97    6   8   0
-0.99    1.03    6   8   0    0.55    0.99    6   8   0   -0.34
1.25    6   8   0    0.34    0.90   -7  -8   0    4.50    2.71   -7
-8   0    4.87    1.39    7   8   0    1.47    1.52    7   8   0
8.65    2.47    7   8   0    5.30    1.78    8   8   0   12.77    2.81
8   8   0   10.77    2.85    8   8   0   14.81    2.69    9   8   0
3.85    1.89    9   8   0    1.28    2.08    9   8   0    6.19    2.33
10   8   0   10.06    3.15   10   8   0    7.67    2.86   11   8   0
1.36    2.33    8  -9   0   53.14    5.71   -8   9   0   67.85    7.18
-8   9   0   67.65    6.32   -8   9   0   66.36    6.58    7  -9   0
110.82    7.37   -7   9   0   98.85    6.99   -7   9   0  101.56
7.21   -7   9   0  108.61    8.11    6  -9   0   82.97    6.18   -6
9   0  101.80    7.35   -6   9   0   81.82    6.18   -6   9   0
90.17    6.49    5  -9   0  176.32    8.87    5  -9   0  149.24
8.37   -5   9   0  164.79    8.65   -5   9   0  173.88    8.93   -5
9   0  164.37    9.51    4  -9   0  131.49    7.17    4  -9   0
108.83    6.86   -4   9   0  124.01    7.14   -4   9   0  132.53
6.11   -4   9   0  122.18    7.70   -4   9   0  131.26    7.22    3
-9   0   83.84    5.37    3  -9   0   84.95    5.62   -3   9   0
77.61    5.94   -3   9   0   91.99    5.69   -3   9   0   74.72
5.35   -3   9   0   92.94    4.91    2  -9   0  149.28    7.26   -2
9   0  138.65    6.31   -2   9   0  137.90    7.24   -2   9   0
151.28    8.01   -2   9   0  140.73    7.09    1  -9   0   73.54
4.63   -1   9   0   74.24    5.22   -1   9   0   71.19    4.23   -1
9   0   64.80    4.69   -1   9   0   71.04    4.62    0  -9   0
85.89    4.91    0   9   0   86.01    5.55    0   9   0   89.05
4.74    0   9   0   76.76    5.06   -1  -9   0  109.11    6.71   -1
-9   0  105.48    4.17   -1  -9   0   92.91    5.13    1   9   0
104.44    5.23    1   9   0   96.78    5.85    1   9   0  116.83
6.17   -2  -9   0   77.94    3.74   -2  -9   0   81.04    6.09   -2
-9   0   81.27    4.56    2   9   0   83.59    5.23    2   9   0
79.05    5.14    2   9   0   73.90    4.34   -3  -9   0   10.01
1.54   -3  -9   0    9.63    3.01   -3  -9   0    7.25    1.77    3
9   0    9.78    2.25    3   9   0    3.85    1.74    3   9   0
3.33    1.42   -4  -9   0    2.07    1.02   -4  -9   0    3.13    2.53
4   9   0    0.04    1.07    4   9   0    0.69    1.46    4   9   0
1.52    1.25   -5  -9   0    5.29    3.04   -5  -9   0    7.53    1.58
5   9   0    6.13    1.84    5   9   0    4.25    1.82    5   9   0
4.18    1.44   -6  -9   0    2.44    2.61   -6  -9   0    0.68    0.98
6   9   0    0.28    1.38    6   9   0    0.95    1.08    6   9   0
-1.51    1.23    6   9   0   -0.37    1.07    7   9   0   14.54
2.71    7   9   0   14.21    2.93    7   9   0   22.29    3.52    8
9   0   43.23    4.90    8   9   0   38.32    4.31    8   9   0
40.90    4.78    9   9   0   53.90    5.77    9   9   0   50.73
5.38   10   9   0   31.56    4.86   10   9   0   41.18    5.55    7
-10   0    0.91    1.87   -7  10   0    0.86    2.26   -7  10   0
-0.90    1.88   -7  10   0   -0.70    1.87    6 -10   0    1.11
1.95   -6  10   0    4.16    2.41   -6  10   0    1.98    1.93   -6
10   0   -0.08    1.85    5 -10   0    8.43    2.79    5 -10   0
9.66    2.79   -5  10   0    9.44    2.68   -5  10   0   12.54    3.28
-5  10   0   15.28    3.36    4 -10   0   25.50    3.87    4 -10   0
17.13    3.18   -4  10   0   21.68    3.71   -4  10   0   21.22
3.52   -4  10   0   17.04    2.67   -4  10   0   18.50    3.79    3
-10   0   17.33    3.04   -3  10   0   14.84    2.50   -3  10   0
17.40    3.43   -3  10   0   15.12    3.00   -3  10   0   24.03
3.50    2 -10   0   14.41    2.69   -2  10   0    6.94    1.95   -2
10   0    7.49    2.38   -2  10   0    6.92    2.01   -2  10   0
4.60    2.03    1 -10   0   25.09    3.21   -1  10   0   26.82    2.95
-1  10   0   27.27    3.56   -1  10   0   27.25    3.33   -1  10   0
27.43    3.79    0 -10   0   19.34    2.77    0  10   0   18.28
3.06    0  10   0   21.26    3.35    0  10   0   23.85    2.74   -1
-10   0   15.04    2.44    1  10   0   14.85    2.83    1  10   0
13.07    2.61    1  10   0    9.36    2.03   -2 -10   0   31.01
2.28   -2 -10   0   28.61    4.37    2  10   0   25.95    2.80    2
10   0   23.76    3.41    2  10   0   34.65    3.87   -3 -10   0
12.42    1.77   -3 -10   0    7.65    3.03    3  10   0    6.62
1.95    3  10   0   11.74    2.64    3  10   0   11.36    2.03   -4
-10   0   -3.46    1.81   -4 -10   0    1.19    1.02    4  10   0
0.22    1.19    4  10   0   -0.65    1.16    4  10   0    2.73    1.59
-5 -10   0    5.46    3.00   -5 -10   0    2.04    1.20    5  10   0
4.91    2.08    5  10   0    2.96    1.48    5  10   0    4.23    1.73
6  10   0    0.03    1.27    6  10   0    0.57    1.48    7  10   0
-0.10    1.50    8  10   0    5.22    2.33    9  10   0    6.86
2.89    6 -11   0   35.19    5.13   -6  11   0   42.79    6.07   -6
11   0   46.38    5.57   -6  11   0   42.38    5.38    5 -11   0
51.71    5.64    5 -11   0   41.97    5.14   -5  11   0   45.29
6.01   -5  11   0   51.29    5.60   -5  11   0   47.24    5.30    4
-11   0   60.69    5.55   -4  11   0   64.53    5.74   -4  11   0
61.96    5.80   -4  11   0   55.22    6.10    3 -11   0   87.23
6.00   -3  11   0   92.38    6.23   -3  11   0   85.65    6.26   -3
11   0   86.07    6.64    2 -11   0   81.45    5.73   -2  11   0
94.22    6.80   -2  11   0   99.89    6.22   -2  11   0  104.15
6.64    1 -11   0  146.24    7.49   -1  11   0  146.92    8.47   -1
11   0  137.07    7.79   -1  11   0  138.01    6.82   -1  11   0
142.44    7.51    0  11   0   71.01    5.55    0  11   0   68.49
4.58    0  11   0   68.74    5.26    1  11   0   41.43    4.45    1
11   0   46.92    4.72    1  11   0   45.24    3.79    2  11   0
56.76    4.03    2  11   0   60.22    5.25    2  11   0   44.01
4.58   -3 -11   0   38.66    2.72   -3 -11   0   38.73    5.43    3
11   0   36.48    4.25    3  11   0   38.98    4.38    3  11   0
30.21    3.20   -4 -11   0   37.32    3.00   -4 -11   0   33.74
5.45    4  11   0   42.14    3.56    4  11   0   40.30    4.33    4
11   0   46.99    4.87    5  11   0   30.54    2.97    5  11   0
21.79    3.68    5  11   0   21.93    3.47    6  11   0   -0.49
1.40    7  11   0   -1.41    1.67    8  11   0    2.22    2.24    9
11   0    0.76    2.32    5 -12   0    9.16    3.10   -5  12   0
7.09    3.07   -5  12   0    7.80    3.10   -5  12   0    5.04    2.66
4 -12   0    7.92    2.83   -4  12   0    6.43    2.85   -4  12   0
11.07    3.06   -4  12   0   12.38    3.41    3 -12   0   24.85
3.92   -3  12   0   29.40    4.47   -3  12   0   25.44    4.46   -2
12   0   57.21    5.58   -2  12   0   61.33    6.19   -1  12   0
60.13    5.92   -1  12   0   45.72    5.03    0  12   0   43.47
4.95    0  12   0   47.19    4.97    1  12   0   22.87    3.74    1
12   0   27.07    3.96    2  12   0   56.51    5.39    2  12   0
51.09    5.15    3  12   0   62.91    5.64    3  12   0   49.28
5.16    4  12   0   45.80    5.14    4  12   0   54.43    5.18    5
12   0   29.98    4.46    6  12   0   26.42    4.32    7  12   0
1.26    2.10    8  12   0    2.53    2.45   -3  13   0   11.61    3.44
-3  13   0   18.95    3.99   -2  13   0   26.42    4.43   -2  13   0
36.12    5.34   -1  13   0   18.58    3.73   -1  13   0   19.63
3.90    0  13   0   20.35    4.00    0  13   0   15.05    3.35    1
13   0   25.40    4.22    1  13   0   24.63    4.23    2  13   0
13.10    3.25    2  13   0    9.59    2.89    3  13   0   28.31
4.40    4  13   0   15.55    3.62    5  13   0   13.02    3.42    6
13   0    3.76    2.55    0  14   0   38.24    5.34    0  14   0
32.69    5.05    1  14   0   77.57    6.98    1  14   0   76.92
6.99    2  14   0   65.12    6.44    3  14   0   59.65    6.27    3
14  -1    4.20    2.71    2  14  -1   -0.26    2.08    1  14  -1
-0.87    2.04    0  14  -1    0.94    2.15    6  13  -1   14.23
3.68    5  13  -1   19.48    4.12    4  13  -1    8.74    2.98    3
13  -1   10.84    3.09    2  13  -1    2.10    2.03    1  13  -1
1.59    1.97    0  13  -1   -2.40    1.61    0  13  -1   -0.23    1.75
-1  13  -1    3.24    2.34   -1  13  -1    5.20    2.53   -2  13  -1
0.18    2.15   -2  13  -1    2.09    2.17   -3  13  -1    7.93    3.16
-3  13  -1    5.07    2.79    3 -13   1    7.52    2.84    7  12  -1
52.01    6.06    6  12  -1   33.18    4.92    5  12  -1   31.69
4.68    4  12  -1   44.07    5.17    3  12  -1   34.95    4.63    2
12  -1   22.55    3.84    1  12  -1    5.12    2.41    1  12  -1
4.70    2.05    0  12  -1    5.45    2.20    0  12  -1    5.98    2.35
-1  12  -1   -1.18    1.37   -1  12  -1    2.56    1.94   -1  12  -1
2.14    2.03    1 -12   1    0.25    1.54   -2  12  -1    1.13    1.90
-2  12  -1   -1.22    1.56   -2  12  -1    0.40    1.81    2 -12   1
-0.32    1.48   -3  12  -1   -2.56    1.44   -3  12  -1    0.13
1.72   -3  12  -1    2.06    2.10    3 -12   1    2.04    1.88   -4
12  -1    3.68    2.17   -4  12  -1    4.96    2.63   -4  12  -1
2.53    2.39    4 -12   1    1.32    1.87    8  11  -1   28.95    4.79
7  11  -1   50.22    5.72    6  11  -1   29.36    4.40    5  11  -1
108.42    7.44   -5 -11   1  123.93    5.53    4  11  -1  107.16
7.01   -4 -11   1   86.31    7.91    3  11  -1   67.73    5.76    3
11  -1   68.45    5.18   -3 -11   1   66.73    6.53    2  11  -1
84.70    6.04    2  11  -1   79.85    4.99    2  11  -1   70.44
5.45   -2 -11   1   90.60    5.41    1  11  -1   19.98    3.31    1
11  -1   13.13    2.80    1  11  -1   11.59    2.43   -1 -11   1
13.09    2.56    0  11  -1    6.30    2.10    0  11  -1    1.53
1.57    0  11  -1    5.17    1.91    0 -11   1    3.33    1.57   -1
11  -1   15.85    2.99   -1  11  -1   15.46    3.25   -1  11  -1
13.81    2.51   -1  11  -1    9.61    2.58    1 -11   1   12.97
2.70   -2  11  -1    1.56    1.57   -2  11  -1    5.24    1.90   -2
11  -1    0.54    1.58   -2  11  -1    3.92    2.02    2 -11   1
2.28    1.80   -3  11  -1    8.27    2.62   -3  11  -1    6.35    2.46
-3  11  -1    8.99    2.59   -3  11  -1    5.96    2.08    3 -11   1
5.51    2.28   -4  11  -1   -0.07    1.64   -4  11  -1    0.32    1.65
-4  11  -1    0.67    1.99    4 -11   1    0.51    1.75   -5  11  -1
15.02    3.78   -5  11  -1   13.03    3.44   -5  11  -1   11.71
3.11    5 -11   1   10.25    3.05    5 -11   1   13.34    3.40   -6
11  -1   12.80    3.76   -6  11  -1   12.10    3.44   -6  11  -1
15.49    3.76    6 -11   1   11.55    3.27    6 -11   1    9.29
3.09    9  10  -1    8.00    2.93    8  10  -1   13.42    3.32    7
10  -1   26.93    4.20    6  10  -1   41.35    3.33    6  10  -1
33.66    4.34    5  10  -1   15.66    2.41    5  10  -1   18.88
3.36   -5 -10   1   19.92    2.25   -5 -10   1    9.71    3.46    4
10  -1   11.66    2.47    4  10  -1    9.74    2.58    4  10  -1
9.49    2.06   -4 -10   1    9.52    3.16   -4 -10   1    8.29    1.56
-4 -10   1    8.64    2.07    3  10  -1   17.22    2.55    3  10  -1
17.44    2.86    3  10  -1   10.45    2.52   -3 -10   1   21.44
1.99   -3 -10   1   14.82    3.68   -3 -10   1   20.47    2.80    2
10  -1    2.98    1.57    2  10  -1    1.02    1.50    2  10  -1
2.73    1.51   -2 -10   1    3.36    2.24   -2 -10   1    0.62    1.28
1  10  -1   19.34    2.64    1  10  -1   19.62    3.16    1  10  -1
21.55    3.11   -1 -10   1   15.05    2.55    0  10  -1   21.28
2.72    0  10  -1   13.91    2.78    0  10  -1   26.81    3.61    0
-10   1   20.55    2.93   -1  10  -1   15.09    2.98   -1  10  -1
11.71    2.26   -1  10  -1   15.88    3.08    1 -10   1    9.53
2.31   -2  10  -1   -0.02    1.15   -2  10  -1    1.26    1.41   -2
10  -1    0.24    1.57   -2  10  -1   -0.47    1.34    2 -10   1
-0.31    1.19   -3  10  -1    1.90    1.77   -3  10  -1    1.17
1.67   -3  10  -1    1.61    1.56   -3  10  -1   -1.31    1.15    3
-10   1   -1.88    1.07   -4  10  -1   -0.03    1.63   -4  10  -1
1.62    1.82   -4  10  -1    0.14    1.48    4 -10   1   -0.36    1.39
4 -10   1    1.01    1.64   -5  10  -1   -0.81    1.59   -5  10  -1
-1.10    1.59   -5  10  -1   -1.24    1.43    5 -10   1    1.50
1.86    5 -10   1    4.66    2.15   -6  10  -1    1.28    2.05   -6
10  -1   -0.94    1.77   -6  10  -1   -1.17    1.53    6 -10   1
2.44    1.96    6 -10   1    0.75    1.89   -7  10  -1   -0.04    2.31
-7  10  -1    0.02    1.93   -7  10  -1   -0.39    2.03    7 -10   1
3.28    2.26   10   9  -1    4.73    2.53   10   9  -1    7.66    3.10
9   9  -1   18.19    3.88    9   9  -1   11.72    3.17    8   9  -1
46.50    5.01    8   9  -1   33.52    4.61    7   9  -1   61.87
5.55    7   9  -1   76.06    5.65    6   9  -1  165.39    6.81    6
9  -1  176.60    8.84   -6  -9   1  165.72    6.87   -6  -9   1
172.37    7.94   -6  -9   1  158.41   10.48    5   9  -1   77.66
4.94    5   9  -1   75.78    4.39    5   9  -1   81.90    5.55   -5
-9   1   76.12    3.99   -5  -9   1   74.54    4.77   -5  -9   1
72.59    7.09    4   9  -1  105.64    5.71    4   9  -1   95.58
6.06    4   9  -1  107.08    5.27   -4  -9   1   98.01    7.45   -4
-9   1   91.68    5.23   -4  -9   1   91.16    4.39    3   9  -1
145.89    6.64    3   9  -1  160.56    7.49    3   9  -1  144.05
8.28    3   9  -1  144.45    7.60   -3  -9   1  159.71    5.80   -3
-9   1  151.44    9.00   -3  -9   1  149.67    6.94    2   9  -1
140.56    7.06    2   9  -1  140.49    7.34    2   9  -1  141.32
8.24    2   9  -1  140.89    6.42   -2  -9   1  150.83    5.20   -2
-9   1  141.35    8.21   -2  -9   1  148.15    6.68    1   9  -1
237.87    9.72    1   9  -1  235.17   11.05    1   9  -1  192.56
9.17    1   9  -1  225.91    8.58   -1  -9   1  225.17    8.95   -1
-9   1  213.95   10.07    0   9  -1  196.41    8.91    0   9  -1
197.08    7.76    0   9  -1  181.49    9.83    0   9  -1  200.80
8.86    0  -9   1  175.72    8.01   -1   9  -1   71.21    5.08   -1
9  -1   66.74    4.87   -1   9  -1   81.25    4.53    1  -9   1
73.86    4.73   -2   9  -1   32.39    4.04   -2   9  -1   40.36
3.26   -2   9  -1   48.70    4.41   -2   9  -1   35.11    3.79    2
-9   1   40.33    3.90   -3   9  -1   14.32    2.82   -3   9  -1
19.66    3.16   -3   9  -1   23.00    3.67   -3   9  -1   14.07
2.30    3  -9   1   18.00    2.96    3  -9   1   14.64    2.85   -4
9  -1   22.53    3.49   -4   9  -1   18.97    3.53   -4   9  -1
19.74    3.29    4  -9   1   22.86    3.58    4  -9   1   24.07
3.46   -5   9  -1   36.59    4.44   -5   9  -1   34.86    4.72   -5
9  -1   40.84    4.61    5  -9   1   47.87    4.82    5  -9   1
29.04    4.08   -6   9  -1    1.02    1.80   -6   9  -1    3.31
1.96   -6   9  -1    6.90    2.38    6  -9   1    1.72    1.86    6
-9   1   -0.51    1.36   -7   9  -1    0.11    1.65   -7   9  -1
2.00    1.81   -7   9  -1    1.91    2.18    7  -9   1   -1.05    1.72
-8   9  -1    6.65    2.79   -8   9  -1    9.16    3.15   -8   9  -1
2.18    2.28    8  -9   1    2.87    2.39   10   8  -1    1.03    2.19
10   8  -1    1.89    2.01    9   8  -1   -0.64    1.52    9   8  -1
1.16    2.09    8   8  -1    1.08    1.77    8   8  -1    0.00    1.42
-8  -8   1    0.26    1.34    7   8  -1    0.16    1.65    7   8  -1
4.81    1.93   -7  -8   1    2.51    1.57   -7  -8   1    1.14    2.26
-7  -8   1    7.19    1.58    6   8  -1    0.17    1.54    6   8  -1
1.28    1.16    6   8  -1    3.40    1.64    6   8  -1    2.61    1.35
-6  -8   1    4.29    1.21   -6  -8   1    1.34    1.29   -6  -8   1
2.58    2.42   -6  -8   1    4.63    1.29    5   8  -1    3.83    1.43
5   8  -1    2.02    1.50    5   8  -1    1.89    1.19    5   8  -1
3.78    1.66   -5  -8   1    7.22    2.99   -5  -8   1    4.30    1.60
-5  -8   1    3.32    1.15    4   8  -1   -0.44    0.89    4   8  -1
-0.23    0.97    4   8  -1    0.94    1.24    4   8  -1    1.01
1.31   -4  -8   1   -0.35    0.99   -4  -8   1    0.47    0.78   -4
-8   1    0.36    2.23    3   8  -1    0.54    1.19    3   8  -1
0.37    1.74    3   8  -1    1.21    1.32    3   8  -1    0.16    0.94
-3  -8   1   -0.09    0.70   -3  -8   1    0.77    1.85   -3  -8   1
-0.79    0.82    2   8  -1    6.89    1.69    2   8  -1   10.04
1.96    2   8  -1    5.73    1.85    2   8  -1    3.11    2.11   -2
-8   1    7.02    1.20   -2  -8   1    8.33    2.63   -2  -8   1
6.96    1.72    1   8  -1   19.67    2.44    1   8  -1   19.68    2.56
1   8  -1   20.10    2.82    1   8  -1   20.70    3.50   -1  -8   1
20.94    1.50   -1  -8   1   18.83    2.41   -1  -8   1   15.77
2.90    0   8  -1   11.94    2.27    0   8  -1    9.47    2.61    0
8  -1   10.22    2.23    0   8  -1    8.57    1.90    0  -8   1
14.83    2.29    0  -8   1   13.26    2.36   -1   8  -1    7.13
1.75   -1   8  -1    3.09    2.03   -1   8  -1    5.60    1.84   -1
8  -1    9.21    2.15    1  -8   1    8.02    1.93   -2   8  -1
0.72    1.28   -2   8  -1    1.87    1.86   -2   8  -1    0.62    1.25
-2   8  -1   -0.23    1.02   -2   8  -1   -0.29    1.35    2  -8   1
0.78    1.17    2  -8   1    0.22    1.10   -3   8  -1   -0.02    1.32
-3   8  -1    0.17    1.16   -3   8  -1    1.27    1.45   -3   8  -1
0.94    1.27    3  -8   1    0.68    1.36    3  -8   1    0.62    1.24
-4   8  -1    1.11    1.47   -4   8  -1    5.67    1.95   -4   8  -1
3.26    1.60    4  -8   1    2.04    1.46    4  -8   1    1.27    1.34
-5   8  -1   13.42    2.78   -5   8  -1   12.32    2.72   -5   8  -1
12.51    2.97    5  -8   1   17.22    3.03    5  -8   1   16.99
3.06   -6   8  -1   -0.26    1.34   -6   8  -1    0.48    1.54   -6
8  -1   -1.21    1.42    6  -8   1   -0.16    1.35    6  -8   1
0.12    1.56   -7   8  -1   -0.74    1.36   -7   8  -1   -1.05    1.30
-7   8  -1    0.31    1.67    7  -8   1   -0.60    1.31   -8   8  -1
-2.05    1.36   -8   8  -1    0.62    1.69   -8   8  -1    2.16
2.26    8  -8   1    1.27    1.90   -9   8  -1   -0.31    1.89   -9
8  -1   -1.17    1.83    9  -8   1   -0.87    1.86   11   7  -1
6.12    2.80   11   7  -1    8.43    3.31   10   7  -1    0.62    1.64
10   7  -1   -1.16    1.74  -10  -7   1    0.71    1.67    9   7  -1
2.88    2.15    9   7  -1    3.14    1.77   -9  -7   1    2.42    1.64
8   7  -1   16.56    2.73    8   7  -1   17.33    3.18    8   7  -1
13.79    3.28   -8  -7   1   11.55    1.93   -8  -7   1   15.14
2.80   -8  -7   1   12.08    3.82    7   7  -1   17.18    3.16    7
7  -1   16.38    2.92    7   7  -1   20.38    2.79   -7  -7   1
20.58    2.89   -7  -7   1   21.79    2.33   -7  -7   1   25.33
4.78    6   7  -1   18.62    2.08    6   7  -1   26.63    3.45    6
7  -1   22.71    2.66    6   7  -1   15.28    2.76   -6  -7   1
19.37    4.05   -6  -7   1   19.93    2.10   -6  -7   1   20.89
2.69    5   7  -1   78.57    5.04    5   7  -1   79.30    4.99    5
7  -1   79.36    4.19    5   7  -1   80.34    4.56   -5  -7   1
67.14    6.33   -5  -7   1   81.00    4.60    4   7  -1  129.32
6.65    4   7  -1  132.91    6.15    4   7  -1  124.48    5.79    4
7  -1  117.29    6.25    4   7  -1  124.65    5.60   -4  -7   1
126.40    5.05   -4  -7   1  121.77    5.77   -4  -7   1  120.26
7.75    3   7  -1  242.86    8.79    3   7  -1  235.19    9.16    3
7  -1  244.23   10.30    3   7  -1  247.87    8.92    3   7  -1
251.28    9.74   -3  -7   1  249.53    7.98   -3  -7   1  251.29
11.42   -3  -7   1  251.51    9.01    2   7  -1  252.55    9.03    2
7  -1  261.92    9.98    2   7  -1  273.12    9.77    2   7  -1
248.29   10.71   -2  -7   1  256.76   11.13   -2  -7   1  257.07
7.99   -2  -7   1  258.69    9.19    1   7  -1  169.11    6.68    1
7  -1  168.96    7.35    1   7  -1  170.99    7.23    1   7  -1
172.87    8.43   -1  -7   1  175.09    8.15   -1  -7   1  165.96
6.74    0   7  -1  313.84   10.28    0   7  -1  319.38   11.47    0
7  -1  310.76   11.24    0   7  -1  304.12   12.55    0  -7   1
313.59   10.79    0  -7   1  310.87   11.51   -1   7  -1  277.61
11.68   -1   7  -1  259.82    9.07   -1   7  -1  272.39   10.22   -1
7  -1  261.79   10.45    1  -7   1  280.27    9.69    1  -7   1
262.24    9.81   -2   7  -1  171.57    7.99   -2   7  -1  174.27
7.66   -2   7  -1  159.66    8.54   -2   7  -1  174.78    6.63   -2
7  -1  172.87    7.61    2  -7   1  181.62    7.83    2  -7   1
181.82    7.66   -3   7  -1  176.64    7.91   -3   7  -1  166.46
8.21   -3   7  -1  184.50    7.99   -3   7  -1  160.56    8.76   -3
7  -1  184.98    6.72    3  -7   1  169.29    7.83    3  -7   1
171.83    7.86   -4   7  -1  145.38    7.20   -4   7  -1  132.23
7.34   -4   7  -1  150.33    7.31    4  -7   1  151.38    7.33    4
-7   1  136.83    6.99   -5   7  -1   30.35    3.56   -5   7  -1
21.41    3.43   -5   7  -1   32.85    3.81    5  -7   1   26.74
3.56    5  -7   1   29.71    3.51   -6   7  -1   37.37    4.12   -6
7  -1   43.56    4.51   -6   7  -1   35.97    4.45    6  -7   1
45.88    4.61    6  -7   1   41.54    4.32   -7   7  -1   16.31
3.11   -7   7  -1   15.06    3.27   -7   7  -1   15.35    3.13    7
-7   1    9.31    2.56   -8   7  -1    3.95    2.30   -8   7  -1
7.12    2.43   -8   7  -1    4.24    2.10    8  -7   1    6.01    2.39
-9   7  -1   -1.79    1.62   -9   7  -1    4.79    2.60   -9   7  -1
2.54    1.90    9  -7   1   -0.07    1.77   11   6  -1    6.15    3.02
11   6  -1    1.45    1.92  -11  -6   1    4.82    2.21   10   6  -1
5.41    2.24   10   6  -1    4.93    2.68  -10  -6   1    4.64    1.93
9   6  -1    1.14    1.43    9   6  -1    0.44    1.72    9   6  -1
0.81    1.38   -9  -6   1    3.34    1.55   -9  -6   1    0.73    2.41
8   6  -1    2.48    1.59    8   6  -1    5.80    1.89    8   6  -1
6.69    2.47   -8  -6   1    2.16    1.06   -8  -6   1    6.77    2.97
-8  -6   1    2.48    1.47    7   6  -1    2.12    1.40    7   6  -1
1.58    1.59    7   6  -1    2.72    1.43   -7  -6   1    0.44    2.30
-7  -6   1    1.83    1.02   -7  -6   1    5.13    1.66    6   6  -1
4.74    1.29    6   6  -1    1.96    1.40    6   6  -1    4.47    1.95
6   6  -1    3.05    1.23   -6  -6   1    3.52    1.12   -6  -6   1
2.30    1.24   -6  -6   1    8.33    2.84    5   6  -1    1.34    1.14
5   6  -1   -1.40    0.90    5   6  -1    0.73    1.42    5   6  -1
0.53    0.81   -5  -6   1    0.54    1.06   -5  -6   1    0.15    0.70
-5  -6   1    6.90    2.64    4   6  -1    2.77    1.31    4   6  -1
3.21    1.38    4   6  -1    3.95    1.15    4   6  -1    3.31    1.65
4   6  -1    2.61    1.36   -4  -6   1    2.34    0.88   -4  -6   1
-0.26    1.81   -4  -6   1    5.22    1.37    3   6  -1   31.07
3.16    3   6  -1   28.82    2.51    3   6  -1   32.71    2.64    3
6  -1   33.40    2.99    3   6  -1   32.28    2.50   -3  -6   1
38.44    2.73   -3  -6   1   37.04    4.10   -3  -6   1   32.45
2.08    2   6  -1   48.44    3.09    2   6  -1   47.79    3.92    2
6  -1   41.98    2.91    2   6  -1   50.77    3.43    2   6  -1
49.11    2.70   -2  -6   1   41.90    2.83   -2  -6   1   37.06
3.81   -2  -6   1   48.07    2.39    1   6  -1   75.00    3.80    1
6  -1   76.18    4.23    1   6  -1   71.27    3.95    1   6  -1
72.67    4.76   -1  -6   1   74.48    4.77   -1  -6   1   72.25
3.83   -1  -6   1   79.80    2.96    0   6  -1   47.16    3.29    0
6  -1   44.41    3.98    0   6  -1   47.30    3.27    0   6  -1
45.32    2.88    0  -6   1   53.45    3.22    0  -6   1   55.83
3.63    0  -6   1   51.02    1.83    0  -6   1   49.51    1.73   -1
6  -1  140.07    7.14   -1   6  -1  139.81    6.20   -1   6  -1
139.69    5.37   -1   6  -1  135.86    6.31    1  -6   1  130.55
6.04    1  -6   1  136.74    5.63    1  -6   1  138.29    6.00   -2
6  -1   59.68    3.91   -2   6  -1   69.17    4.16   -2   6  -1
63.57    3.37   -2   6  -1   64.22    4.21   -2   6  -1   75.31
5.10    2  -6   1   70.28    3.07    2  -6   1   66.54    4.01    2
-6   1   66.72    4.14   -3   6  -1   33.63    2.42   -3   6  -1
22.65    2.90   -3   6  -1   25.19    2.80   -3   6  -1   26.75
3.44   -3   6  -1   28.22    2.99    3  -6   1   29.19    2.97    3
-6   1   33.23    3.18   -4   6  -1   52.02    4.03   -4   6  -1
61.86    4.22   -4   6  -1   53.58    4.21    4  -6   1   62.58
4.29    4  -6   1   53.30    4.05   -5   6  -1   47.37    4.15   -5
6  -1   40.85    3.78   -5   6  -1   44.04    4.28    5  -6   1
45.90    3.98    5  -6   1   41.01    3.94   -6   6  -1   43.99
4.18   -6   6  -1   42.49    4.23   -6   6  -1   42.17    4.42    6
-6   1   46.19    4.22    6  -6   1   35.01    4.06   -7   6  -1
39.32    4.35   -7   6  -1   26.96    4.09   -7   6  -1   35.69
4.11    7  -6   1   32.13    3.91   -8   6  -1   14.59    3.13   -8
6  -1   16.59    3.54   -8   6  -1   14.84    3.03    8  -6   1
14.46    2.99   -9   6  -1    3.41    2.10   -9   6  -1    0.68
1.91   -9   6  -1    9.45    2.74    9  -6   1    1.60    1.83  -10
6  -1    4.67    2.47  -10   6  -1    0.48    1.96  -10   6  -1
3.41    2.62   10  -6   1    1.27    1.90   11   5  -1   41.72    6.10
11   5  -1   42.07    5.20  -11  -5   1   36.95    4.65   10   5  -1
37.37    4.28   10   5  -1   28.65    4.10   10   5  -1   33.72
5.21  -10  -5   1   34.25    4.12    9   5  -1   12.39    3.30    9
5  -1   12.35    2.70    9   5  -1   14.71    2.80   -9  -5   1
10.47    3.51   -9  -5   1   12.37    2.69   -9  -5   1   13.11
2.03    8   5  -1   43.49    4.27    8   5  -1   35.80    4.55    8
5  -1   32.95    3.48   -8  -5   1   31.73    3.41   -8  -5   1
41.26    5.47   -8  -5   1   36.42    2.86    7   5  -1    1.70
1.71    7   5  -1   -0.26    0.91    7   5  -1    0.64    1.14   -7
-5   1    6.90    2.90   -7  -5   1   -0.53    0.93   -7  -5   1
2.80    1.05    6   5  -1    0.60    1.54    6   5  -1   -0.30    0.97
6   5  -1    0.95    0.93    6   5  -1    0.50    0.88   -6  -5   1
-0.91    1.92   -6  -5   1    0.58    0.81   -6  -5   1    1.62
1.06    5   5  -1   27.83    3.17    5   5  -1   27.31    2.29    5
5  -1   29.23    2.54    5   5  -1   30.96    2.96   -5  -5   1
28.60    2.13   -5  -5   1   29.43    2.69   -5  -5   1   34.98
4.39    4   5  -1   31.84    2.35    4   5  -1   25.67    2.59    4
5  -1   31.06    2.93    4   5  -1   35.21    2.84    4   5  -1
27.36    2.33   -4  -5   1   29.51    2.50   -4  -5   1   31.34
2.03   -4  -5   1   27.81    3.75    3   5  -1   70.36    3.95    3
5  -1   80.85    3.76    3   5  -1   73.39    4.25    3   5  -1
83.99    4.33    3   5  -1   77.33    3.79   -3  -5   1   69.43
5.05   -3  -5   1   84.04    3.91   -3  -5   1   80.52    3.32    2
5  -1   71.36    3.57    2   5  -1   67.94    3.80    2   5  -1
68.65    3.36    2   5  -1   70.41    4.23    2   5  -1   75.99
3.61   -2  -5   1   65.72    4.56   -2  -5   1   73.11    2.93   -2
-5   1   72.27    3.51    1   5  -1  130.19    5.04    1   5  -1
129.49    5.33    1   5  -1  132.20    5.57    1   5  -1  133.01
6.22   -1  -5   1  130.95    4.29   -1  -5   1  137.20    6.32   -1
-5   1  126.51    5.13    0   5  -1  224.43    7.91    0   5  -1
211.86    7.07    0   5  -1  216.09    7.90    0  -5   1  213.16
8.14    0  -5   1  216.06    5.87    0  -5   1  213.31    5.95    0
-5   1  221.88    7.59   -1   5  -1  249.69    8.89   -1   5  -1
254.20    9.17   -1   5  -1  256.99    7.90   -1   5  -1  248.31
9.99    1  -5   1  252.61    8.94    1  -5   1  253.12    8.52    1
-5   1  252.55    8.80   -2   5  -1  135.17    5.95   -2   5  -1
138.36    6.20   -2   5  -1  139.16    6.08   -2   5  -1  138.50
6.92   -2   5  -1  141.50    5.02   -2   5  -1  147.40    5.16    2
-5   1  150.40    6.13    2  -5   1  143.09    6.10    2  -5   1
153.00    4.95   -3   5  -1  254.84    9.62   -3   5  -1  275.19
9.76   -3   5  -1  284.37    8.23   -3   5  -1  268.19   10.78   -3
5  -1  256.19   10.01    3  -5   1  262.60    9.71    3  -5   1
260.72    9.70   -4   5  -1  166.38    5.52   -4   5  -1  162.37
7.88   -4   5  -1  152.44    7.29   -4   5  -1  156.26    7.00   -4
5  -1  148.89    6.81    4  -5   1  156.92    6.89    4  -5   1
147.96    6.88   -5   5  -1   44.16    3.77   -5   5  -1   53.27
4.07   -5   5  -1   48.39    4.21    5  -5   1   59.00    4.06    5
-5   1   53.06    4.20   -6   5  -1   29.48    3.35   -6   5  -1
28.69    3.67   -6   5  -1   32.24    3.55    6  -5   1   32.30
3.45   -7   5  -1   62.42    5.35   -7   5  -1   49.40    4.58   -7
5  -1   36.08    3.95    7  -5   1   50.53    4.49   -8   5  -1
44.43    4.65   -8   5  -1   37.85    4.26   -8   5  -1   36.18
4.68    8  -5   1   41.91    4.39   -9   5  -1   15.36    3.57   -9
5  -1   26.57    4.11   -9   5  -1   22.88    3.74    9  -5   1
20.68    3.66  -10   5  -1    7.94    3.00  -10   5  -1    6.34
2.56  -10   5  -1    5.24    2.49   10  -5   1    3.39    2.33   12
4  -1   11.50    3.86  -12  -4   1   15.88    3.50   11   4  -1
19.70    3.66   11   4  -1   16.03    4.10   11   4  -1   21.03
3.87  -11  -4   1   15.82    3.26   10   4  -1   26.44    3.98   10
4  -1   34.49    5.24   10   4  -1   25.56    3.74  -10  -4   1
29.49    4.94  -10  -4   1   26.85    3.71  -10  -4   1   32.49
4.00    9   4  -1   25.72    4.38    9   4  -1   35.94    3.85    9
4  -1   30.34    3.86   -9  -4   1   28.78    2.74   -9  -4   1
36.66    5.30   -9  -4   1   28.22    3.52    8   4  -1   34.72
3.51    8   4  -1   41.18    4.00    8   4  -1   38.31    4.78   -8
-4   1   39.20    3.67   -8  -4   1   34.04    4.96   -8  -4   1
36.82    2.72    7   4  -1    5.18    1.76    7   4  -1    5.59
1.60    7   4  -1    3.09    2.01   -7  -4   1    2.61    2.28   -7
-4   1    7.00    1.39   -7  -4   1    9.93    2.06    6   4  -1
3.48    1.83    6   4  -1    6.38    1.10    6   4  -1    4.25    1.37
6   4  -1    3.99    1.53   -6  -4   1    2.02    2.19   -6  -4   1
4.94    1.51   -6  -4   1    6.62    1.24    5   4  -1    1.08    1.33
5   4  -1    0.66    0.90    5   4  -1    1.72    0.95    5   4  -1
0.38    0.78   -5  -4   1    1.12    0.99   -5  -4   1    1.93    0.75
-5  -4   1   -0.13    1.58    4   4  -1   27.13    2.15    4   4  -1
26.29    2.43    4   4  -1   29.46    2.84    4   4  -1   31.81
2.19    4   4  -1   29.22    2.27   -4  -4   1   30.88    2.31   -4
-4   1   28.65    1.84   -4  -4   1   33.23    3.71    3   4  -1
5.44    1.25    3   4  -1    7.30    1.39    3   4  -1    5.39    1.02
3   4  -1    5.21    1.32    3   4  -1    4.00    1.28   -3  -4   1
6.94    2.00   -3  -4   1    6.30    0.94   -3  -4   1    4.79    1.08
2   4  -1    5.69    1.12    2   4  -1    2.62    1.11    2   4  -1
4.67    1.07    2   4  -1    2.77    0.99    2   4  -1    4.75    0.92
-2  -4   1    3.68    1.48   -2  -4   1    3.60    0.94   -2  -4   1
3.72    0.71    1   4  -1    1.26    0.81    1   4  -1    1.97    1.15
1   4  -1    0.86    0.83    1   4  -1    2.02    0.76   -1  -4   1
1.88    0.76   -1  -4   1    1.34    0.50   -1  -4   1    4.31    1.43
0   4  -1   67.24    3.31    0   4  -1   63.38    3.84    0   4  -1
68.30    2.95    0   4  -1   66.53    3.36    0  -4   1   63.18
3.43    0  -4   1   72.07    3.28    0  -4   1   64.98    2.06    0
-4   1   64.39    2.13   -1   4  -1  279.76    9.32   -1   4  -1
263.77    8.99   -1   4  -1  291.57    9.14   -1   4  -1  267.04
7.95   -1   4  -1  266.37   10.03    1  -4   1  283.53    9.05    1
-4   1  284.74    8.81    1  -4   1  260.90    8.98   -2   4  -1
422.12   13.56   -2   4  -1  438.62   12.55   -2   4  -1  428.95
13.14   -2   4  -1  416.93   14.34   -2   4  -1  422.57   11.50    2
-4   1  443.25   12.26    2  -4   1  413.35   13.06    2  -4   1
398.30   13.02   -3   4  -1  268.06    9.27   -3   4  -1  275.41
10.29   -3   4  -1  269.75    9.38   -3   4  -1  249.49    9.54   -3
4  -1  260.71    7.55    3  -4   1  257.59    9.19    3  -4   1
273.21    9.39   -4   4  -1  154.95    7.21   -4   4  -1  158.50
6.80   -4   4  -1  155.74    6.65   -4   4  -1  166.25    5.16   -4
4  -1  149.38    6.97   -4   4  -1  173.84    6.52    4  -4   1
139.76    6.57    4  -4   1  165.03    6.45    4  -4   1  152.86
6.65   -5   4  -1  113.53    6.10   -5   4  -1  110.14    5.64   -5
4  -1  115.87    6.01    5  -4   1  121.52    5.85    5  -4   1
130.03    5.92    5  -4   1  121.42    6.09   -6   4  -1  108.01
5.99   -6   4  -1  113.86    5.93   -6   4  -1  113.26    6.41    6
-4   1  107.98    5.80    6  -4   1  120.69    6.22   -7   4  -1
104.78    5.96   -7   4  -1  113.40    6.37   -7   4  -1   98.00
6.32    7  -4   1  109.95    6.34    7  -4   1  104.78    5.95   -8
4  -1   99.67    6.73   -8   4  -1  105.86    6.33   -8   4  -1
95.62    6.29    8  -4   1  100.28    6.14   -9   4  -1   45.40
5.25   -9   4  -1   49.87    5.15   -9   4  -1   56.16    5.17    9
-4   1   48.66    4.80  -10   4  -1   53.85    5.49  -10   4  -1
51.35    5.94  -10   4  -1   57.55    5.67   10  -4   1   59.25
5.58  -11   4  -1   12.09    3.27  -11   4  -1   11.26    3.27  -11
4  -1   13.45    3.80   11  -4   1   16.62    3.71   12   3  -1
44.52    6.48   12   3  -1   41.43    5.41  -12  -3   1   45.50
5.44   11   3  -1   77.05    6.09   11   3  -1   74.57    7.58   11
3  -1   70.60    6.25  -11  -3   1   77.48    6.10  -11  -3   1
87.59    6.43   10   3  -1   50.14    5.12   10   3  -1   57.73
5.20   10   3  -1   66.48    6.71  -10  -3   1   53.20    4.99  -10
-3   1   59.30    5.19  -10  -3   1   52.23    3.67    9   3  -1
38.50    4.17    9   3  -1   43.51    5.38    9   3  -1   40.60
4.13   -9  -3   1   51.42    5.55   -9  -3   1   48.01    4.38   -9
-3   1   49.31    4.40   -9  -3   1   34.20    2.92    8   3  -1
17.46    2.72    8   3  -1   12.94    2.46    8   3  -1   19.19
3.71   -8  -3   1   15.36    3.43   -8  -3   1   15.52    2.63   -8
-3   1   14.10    1.84    7   3  -1   51.03    3.86    7   3  -1
45.98    3.45    7   3  -1   41.02    4.48   -7  -3   1   47.97
3.66   -7  -3   1   42.81    2.73   -7  -3   1   45.10    4.87    6
3  -1   10.07    1.91    6   3  -1   10.15    2.51    6   3  -1
10.58    1.02    6   3  -1   12.43    1.96   -6  -3   1    8.73
2.69   -6  -3   1    8.51    1.33   -6  -3   1   10.04    1.85    5
3  -1   82.40    4.29    5   3  -1   85.11    5.18    5   3  -1
77.60    3.33    5   3  -1   74.86    3.98   -5  -3   1   81.69
5.47   -5  -3   1   76.18    3.38   -5  -3   1   83.04    4.20    4
3  -1    1.77    0.89    4   3  -1    0.97    0.70    4   3  -1
1.53    1.10    4   3  -1    1.24    0.82   -4  -3   1    0.84    1.37
-4  -3   1    1.65    0.82   -4  -3   1    1.36    0.62    3   3  -1
1.45    0.60    3   3  -1   -1.11    0.66    3   3  -1    0.03    0.63
3   3  -1    0.62    0.67    3   3  -1   -0.33    0.66   -3  -3   1
0.85    0.63   -3  -3   1   -0.17    1.15   -3  -3   1   -0.14    0.38
2   3  -1    5.02    0.99    2   3  -1    5.21    1.05    2   3  -1
4.27    1.05    2   3  -1    2.37    0.65   -2  -3   1    3.72    0.66
-2  -3   1    4.38    0.91   -2  -3   1    6.10    1.63    1   3  -1
0.08    0.43    1   3  -1   -1.12    0.49    1   3  -1   -0.11    0.71
1   3  -1    0.30    0.82   -1  -3   1    0.75    0.41   -1  -3   1
-1.22    0.88   -1  -3   1    0.39    0.63   -1  -3   1    0.28
0.53    0   3  -1   46.50    2.69    0   3  -1   44.80    2.36    0
3  -1   45.11    2.77    0   3  -1   43.31    2.01    0   3  -1
42.97    2.40    0  -3   1   45.36    1.34    0  -3   1   46.05
2.58    0  -3   1   38.25    2.21   -1   3  -1  204.07    6.89   -1
3  -1  218.05    7.04   -1   3  -1  217.59    7.18   -1   3  -1
212.37    5.80   -1   3  -1  228.01    7.97   -1   3  -1  211.81
5.69    1  -3   1  206.60    6.96    1  -3   1  210.03    6.63    1
-3   1  201.59    6.96   -2   3  -1   22.38    1.29   -2   3  -1
16.95    1.77   -2   3  -1   23.46    2.37   -2   3  -1   19.48
1.79   -2   3  -1   16.76    1.75    2  -3   1   23.77    1.08    2
-3   1   23.16    1.95    2  -3   1   21.30    1.83   -3   3  -1
1.07    0.82   -3   3  -1   -0.63    1.06   -3   3  -1    0.69    0.64
-3   3  -1    1.09    0.74   -3   3  -1    0.51    0.72    3  -3   1
2.08    0.85    3  -3   1    1.61    0.89    3  -3   1    0.80    0.76
-4   3  -1   32.11    1.40   -4   3  -1   30.43    2.53   -4   3  -1
27.95    2.56   -4   3  -1   33.22    2.28   -4   3  -1   32.80
2.88   -4   3  -1   27.02    2.60    4  -3   1   25.83    2.50    4
-3   1   29.89    2.50    4  -3   1   31.80    2.58    4  -3   1
24.98    2.56   -5   3  -1   38.15    3.43   -5   3  -1   49.16
3.47    5  -3   1   50.31    3.66    5  -3   1   50.96    3.54    5
-3   1   53.55    3.74    5  -3   1   49.80    3.40   -6   3  -1
26.37    3.03   -6   3  -1   27.86    3.21    6  -3   1   29.42
2.99    6  -3   1   31.85    3.38   -7   3  -1   52.28    4.53    7
-3   1   47.75    4.03    7  -3   1   48.94    4.38    7  -3   1
41.67    4.18   -8   3  -1    6.25    2.08   -8   3  -1    7.45
2.21    8  -3   1    8.51    2.51    8  -3   1    9.46    2.20    8
-3   1    7.35    2.27   -9   3  -1   10.16    2.71   -9   3  -1
6.41    2.39    9  -3   1    6.70    2.13    9  -3   1   11.23    2.81
9  -3   1    6.00    2.43  -10   3  -1    2.37    2.15  -10   3  -1
7.04    2.41   10  -3   1    4.63    2.06   10  -3   1    3.81    2.61
10  -3   1    4.00    2.19  -11   3  -1   -0.51    2.03  -11   3  -1
-0.82    1.69   11  -3   1    4.05    2.16   12   2  -1   57.99
6.18   12   2  -1   53.77    6.90   12   2  -1   40.97    5.37  -12
-2   1   50.84    5.72  -12  -2   1   58.71    6.09   11   2  -1
63.54    5.88   11   2  -1   55.43    6.78   11   2  -1   67.69
6.08  -11  -2   1   65.43    5.87  -11  -2   1   52.03    5.51   10
2  -1   99.28    7.92   10   2  -1  107.56    6.77   10   2  -1
116.58    6.96  -10  -2   1  101.15    6.53  -10  -2   1  101.22
6.68  -10  -2   1  112.77    5.48    9   2  -1  114.96    6.65    9
2  -1  100.43    7.58    9   2  -1  106.91    6.56   -9  -2   1
117.36    5.28   -9  -2   1  112.41    6.57   -9  -2   1  118.20
6.63    8   2  -1   66.20    4.67    8   2  -1   63.95    4.58    8
2  -1   69.75    6.08   -8  -2   1   67.41    3.62   -8  -2   1
63.22    4.52   -8  -2   1   75.25    5.71   -8  -2   1   69.33
4.72    7   2  -1   88.44    5.23    7   2  -1   94.05    5.29    7
2  -1  102.41    6.62   -7  -2   1  104.63    5.45   -7  -2   1
101.95    4.38   -7  -2   1   96.78    5.28   -7  -2   1  108.91
6.69    6   2  -1   54.12    4.65    6   2  -1   55.56    3.66    6
2  -1   61.41    3.72   -6  -2   1   56.93    3.62   -6  -2   1
52.89    2.79   -6  -2   1   47.05    4.44    5   2  -1  116.14
5.02    5   2  -1  104.64    5.02    5   2  -1  111.82    3.83    5
2  -1  109.80    3.59    5   2  -1  113.56    6.06   -5  -2   1
110.42    6.13   -5  -2   1  107.84    4.13   -5  -2   1  118.41
5.11    4   2  -1  192.48    6.78    4   2  -1  183.91    6.03    4
2  -1  187.72    6.89    4   2  -1  187.48    7.91   -4  -2   1
188.05    6.82   -4  -2   1  198.63    8.25   -4  -2   1  193.30
5.96    3   2  -1   96.42    4.66    3   2  -1   94.48    3.75    3
2  -1   93.46    3.68    3   2  -1   94.59    3.95   -3  -2   1
95.70    3.89   -3  -2   1   90.80    4.84   -3  -2   1   92.95
3.31    2   2  -1    1.61    0.80    2   2  -1    2.00    0.71    2
2  -1    1.08    0.48   -2  -2   1    2.73    1.29   -2  -2   1
1.00    0.65   -2  -2   1    0.98    0.44    1   2  -1    1.28    0.59
1   2  -1    0.85    0.54    1   2  -1    0.08    0.27   -1  -2   1
0.96    0.35   -1  -2   1    0.80    0.82   -1  -2   1   -0.04    0.47
0   2  -1   24.39    1.69    0   2  -1   24.03    1.07    0   2  -1
23.53    0.96    0   2  -1   23.57    1.48    0   2  -1   24.28
1.65    0   2  -1   25.69    1.37    0  -2   1   25.23    1.57   -1
2  -1   37.26    2.36   -1   2  -1   40.52    2.08   -1   2  -1
40.53    1.76   -1   2  -1   39.62    2.06    1  -2   1   42.30
1.71    1  -2   1   37.95    2.03   -2   2  -1  141.11    5.38   -2
2  -1  155.96    5.32   -2   2  -1  154.13    4.58   -2   2  -1
150.71    4.55   -2   2  -1  142.59    5.31   -2   2  -1  147.88
5.75    2  -2   1  150.89    5.37    2  -2   1  150.42    5.50    2
-2   1  145.85    5.25    2  -2   1  156.07    4.59   -3   2  -1
222.07    6.35   -3   2  -1  214.32    7.33   -3   2  -1  214.77
6.92   -3   2  -1  222.61    6.49   -3   2  -1  207.63    7.58   -3
2  -1  203.74    7.48    3  -2   1  206.05    7.22    3  -2   1
197.45    7.44    3  -2   1  203.49    7.38    3  -2   1  217.12
7.35   -4   2  -1  257.06    8.96   -4   2  -1  248.42    9.17   -4
2  -1  234.39    8.78   -4   2  -1  257.82    8.12   -4   2  -1
259.88    8.52   -4   2  -1  270.62    7.82    4  -2   1  248.92
8.75    4  -2   1  265.08    7.80    4  -2   1  252.90    9.20    4
-2   1  251.15    8.86   -5   2  -1  305.32   10.94   -5   2  -1
327.87   10.47   -5   2  -1  332.55    8.64   -5   2  -1  326.31
11.57   -5   2  -1  338.51   10.78    5  -2   1  316.75   10.89    5
-2   1  317.62   11.69    5  -2   1  298.71   11.34   -6   2  -1
153.79    6.96   -6   2  -1  166.10    7.46    6  -2   1  150.02
7.17    6  -2   1  146.01    7.36    6  -2   1  152.47    6.78   -7
2  -1  201.50    8.76   -7   2  -1  210.86    9.27    7  -2   1
220.54    9.69    7  -2   1  194.62    9.01    7  -2   1  183.93
8.35   -8   2  -1   79.75    5.49   -8   2  -1   89.20    5.89    8
-2   1   94.74    5.99    8  -2   1   86.28    5.42    8  -2   1
82.38    5.99   -9   2  -1   94.17    6.10   -9   2  -1   81.83
6.09    9  -2   1   87.92    6.23    9  -2   1   86.91    5.85    9
-2   1  103.21    6.81  -10   2  -1   93.85    7.00  -10   2  -1
99.16    6.77   10  -2   1  106.16    7.48   10  -2   1  105.92
6.83   10  -2   1  102.31    7.19  -11   2  -1  111.04    7.49   11
-2   1  113.26    8.22   11  -2   1   99.99    7.64   11  -2   1
108.66    7.38   12   1  -1   13.62    3.36   12   1  -1   14.12
4.13   12   1  -1   14.67    3.61  -12  -1   1   16.20    3.63  -12
-1   1   13.74    3.56   11   1  -1    7.00    3.30   11   1  -1
11.31    2.96   11   1  -1    9.03    2.72  -11  -1   1   13.23
3.25  -11  -1   1   10.96    2.89   10   1  -1   18.00    3.28   10
1  -1   19.92    3.56   10   1  -1   21.74    4.27  -10  -1   1
18.17    3.29  -10  -1   1   22.01    2.59  -10  -1   1   13.27
3.08    9   1  -1   19.34    3.18    9   1  -1   23.32    4.26    9
1  -1   15.29    2.78   -9  -1   1   25.95    3.54   -9  -1   1
19.47    3.13   -9  -1   1   19.59    2.23    8   1  -1   25.78
4.09    8   1  -1   29.64    3.37    8   1  -1   29.56    3.37   -8
-1   1   29.09    3.69   -8  -1   1   25.72    3.21   -8  -1   1
24.43    2.22   -8  -1   1   25.10    3.15    7   1  -1    1.58
1.20    7   1  -1    0.14    1.67    7   1  -1    0.42    1.07   -7
-1   1    3.46    1.89   -7  -1   1    1.55    0.84   -7  -1   1
2.46    1.26   -7  -1   1    1.09    1.26    6   1  -1    5.52    2.08
6   1  -1    3.90    1.30    6   1  -1    5.35    1.44   -6  -1   1
3.95    1.80   -6  -1   1    3.52    0.99   -6  -1   1    5.56    1.57
-6  -1   1    5.48    1.54    5   1  -1   49.24    3.05    5   1  -1
44.40    2.96    5   1  -1   48.31    4.07    5   1  -1   46.13
1.73    5   1  -1   44.15    1.62   -5  -1   1   44.96    3.01   -5
-1   1   46.42    3.66   -5  -1   1   51.71    3.07   -5  -1   1
47.45    2.38    4   1  -1  132.05    6.26    4   1  -1  128.62
3.98    4   1  -1  132.04    5.13    4   1  -1  127.09    5.15   -4
-1   1  131.82    5.20   -4  -1   1  125.72    4.28   -4  -1   1
125.17    5.92    3   1  -1   31.17    1.93    3   1  -1   34.22
2.05    3   1  -1   33.55    1.95   -3  -1   1   35.92    1.66   -3
-1   1   32.78    2.63   -3  -1   1   29.45    2.00    2   1  -1
3.79    0.64    2   1  -1    4.87    0.84    2   1  -1    3.98    0.53
2   1  -1    4.04    0.74   -2  -1   1    4.13    0.56   -2  -1   1
5.16    1.20    1   1  -1   14.15    0.73    1   1  -1   14.32    0.94
1   1  -1   13.52    0.89    1   1  -1   14.28    1.25   -1  -1   1
14.26    0.85   -1  -1   1   15.12    0.73   -1  -1   1   11.62
1.09    0   1  -1    4.09    0.51    0   1  -1    4.37    0.54    0
-1   1    3.53    0.49   -1   1  -1    0.66    0.26   -1   1  -1
1.25    0.38   -1   1  -1    0.41    0.30    1  -1   1    0.88    0.36
1  -1   1    0.19    0.23    1  -1   1    0.41    0.34   -2   1  -1
18.63    1.08   -2   1  -1   18.64    1.06    2  -1   1   17.52
1.02    2  -1   1   17.52    1.06    2  -1   1   17.92    1.40    2
-1   1   17.77    1.42   -3   1  -1   38.80    1.86   -3   1  -1
34.72    2.29   -3   1  -1   38.39    2.00   -3   1  -1   37.43
1.80   -3   1  -1   32.27    2.20    3  -1   1   37.86    2.51    3
-1   1   38.15    2.35    3  -1   1   37.71    1.82    3  -1   1
34.81    2.17    3  -1   1   38.68    2.33   -4   1  -1    0.66
0.52   -4   1  -1    1.51    0.81   -4   1  -1   -0.18    0.58   -4
1  -1    0.36    0.66   -4   1  -1    0.17    0.72    4  -1   1
-0.02    0.92    4  -1   1   -0.83    0.52    4  -1   1   -0.45
0.51   -5   1  -1    4.57    1.40   -5   1  -1    3.88    1.24   -5
1  -1    4.91    0.54   -5   1  -1    5.38    1.36    5  -1   1
5.41    1.27    5  -1   1    3.06    1.22    5  -1   1    4.60    1.60
-6   1  -1    1.29    1.35   -6   1  -1   -0.31    0.92   -6   1  -1
0.44    0.98    6  -1   1    1.15    0.95    6  -1   1    2.62    1.58
6  -1   1   -0.10    0.93   -7   1  -1   27.31    3.12   -7   1  -1
30.23    3.39    7  -1   1   35.76    3.97    7  -1   1   35.25
3.51    7  -1   1   25.84    2.94   -8   1  -1   -0.58    1.20   -8
1  -1   -0.65    0.97    8  -1   1    1.09    1.56    8  -1   1
0.88    1.19    8  -1   1    0.68    1.30   -9   1  -1    2.01    1.51
-9   1  -1    4.30    2.03    9  -1   1    2.72    1.69    9  -1   1
6.22    2.08    9  -1   1    1.14    1.85  -10   1  -1    1.37    1.76
-10   1  -1    2.42    1.78   10  -1   1    2.35    2.13   10  -1   1
0.79    1.35   10  -1   1   -0.84    1.28  -11   1  -1    4.11    2.33
-11   1  -1    6.02    2.32   11  -1   1    3.27    2.50   11  -1   1
7.34    2.60   11  -1   1    6.54    2.64  -12   1  -1    8.63    3.02
-12   1  -1    6.58    2.99   12  -1   1    7.21    3.28   12  -1   1
10.13    3.42   12   0  -1   35.74    5.88   12   0  -1   33.50
4.95   12   0  -1   38.49    5.45  -12   0   1   31.34    4.92  -12
0   1   34.57    5.18   11   0  -1   62.62    6.18   11   0  -1
78.05    6.40   11   0  -1   78.20    7.58  -11   0   1   71.19
6.27  -11   0   1   74.16    6.45   10   0  -1   73.16    7.06   10
0  -1   83.00    5.93   10   0  -1   96.84    6.48  -10   0   1
83.64    6.17  -10   0   1   95.74    6.43  -10   0   1   83.32
4.66    9   0  -1  113.68    6.89    9   0  -1  115.79    6.62    9
0  -1  103.92    7.54   -9   0   1  113.76    6.66   -9   0   1
123.65    5.48   -9   0   1  108.26    6.83    8   0  -1  238.51
10.28    8   0  -1  239.60   11.55    8   0  -1  236.97    9.89   -8
0   1  234.08   10.28   -8   0   1  250.45    8.41   -8   0   1
226.11    9.87    7   0  -1  181.23    9.46    7   0  -1  187.27
8.31    7   0  -1  177.50    7.92   -7   0   1  197.38    8.52   -7
0   1  195.91    6.78   -7   0   1  205.41    8.55   -7   0   1
186.83    8.19    6   0  -1  196.56    7.80    6   0  -1  199.07
8.11    6   0  -1  196.28    9.29   -6   0   1  212.29    8.32   -6
0   1  193.58    7.99   -6   0   1  199.67    8.32   -6   0   1
203.48    6.70    5   0  -1  242.96   10.13    5   0  -1  245.50
8.94    5   0  -1  234.45    8.62    5   0  -1  253.61    8.70   -5
0   1  256.11    7.55   -5   0   1  239.81    8.78   -5   0   1
240.63    9.18   -5   0   1  257.30    9.02    4   0  -1  366.88
13.17    4   0  -1  375.43   12.04    4   0  -1  371.19   11.64    4
0  -1  395.07    9.96    4   0  -1  369.74   10.11    4   0  -1
377.50   11.98   -4   0   1  390.24   12.05   -4   0   1  376.55
10.53   -4   0   1  382.17   12.50   -4   0   1  390.34   11.88    3
0  -1   47.88    1.78    3   0  -1   44.71    2.35    3   0  -1
42.97    2.03    3   0  -1   42.07    2.41    3   0  -1   43.66
3.15   -3   0   1   43.92    1.89   -3   0   1   44.66    2.43   -3
0   1   43.21    2.63    2   0  -1   64.18    2.57    2   0  -1
58.14    2.38    2   0  -1   61.58    2.13    2   0  -1   65.66
2.54   -2   0   1   63.17    2.82   -2   0   1   61.98    2.56   -2
0   1   60.14    2.17    1   0  -1  132.58    4.17    1   0  -1
126.21    3.65    1   0  -1  124.37    3.82    1   0  -1  120.01
3.51    1   0  -1  125.64    3.72   -1   0   1  120.46    3.49   -1
0   1  119.56    4.04   -1   0   1  126.63    3.62   -1   0   1
131.79    3.84    0   0   1  128.81    3.99   -1   0  -1    3.38
0.44   -1   0  -1    3.06    0.44    1   0   1    2.69    0.39    1
0   1    3.50    0.43    1   0   1    2.60    0.41    1   0   1
3.17    0.45   -2   0  -1    7.04    0.53   -2   0  -1    7.50    0.84
-2   0  -1    6.79    0.76    2   0   1    7.37    0.83    2   0   1
4.45    0.78   -3   0  -1   47.59    2.59   -3   0  -1   46.17    2.46
3   0   1   52.51    2.55    3   0   1   50.09    1.84    3   0   1
51.16    2.65    3   0   1   48.76    2.89   -4   0  -1  162.27
5.98   -4   0  -1  162.70    6.34    4   0   1  163.77    5.23    4
0   1  166.19    6.83    4   0   1  164.64    6.04   -5   0  -1
33.07    2.53   -5   0  -1   36.12    1.45   -5   0  -1   33.11
2.90    5   0   1   36.03    1.88    5   0   1   35.89    3.28    5
0   1   37.45    2.64    5   0   1   34.25    2.69   -6   0  -1
43.46    3.21   -6   0  -1   51.42    3.90   -6   0  -1   42.36
3.37   -6   0  -1   51.96    2.20    6   0   1   48.18    3.53    6
0   1   47.10    4.07    6   0   1   50.88    2.44    6   0   1
46.82    3.30   -7   0  -1   83.09    5.47   -7   0  -1   84.08
4.84   -7   0  -1   90.41    5.37    7   0   1   85.25    5.14    7
0   1   82.84    5.75    7   0   1   79.28    4.80   -8   0  -1
149.28    7.13   -8   0  -1  142.65    7.42    8   0   1  132.35
7.91    8   0   1  129.70    6.82    8   0   1  148.88    7.54   -9
0  -1   99.90    6.07   -9   0  -1  105.24    6.58    9   0   1
92.60    6.17    9   0   1   91.72    6.75    9   0   1  106.82
6.30  -10   0  -1   92.27    6.20  -10   0  -1   83.67    6.39   10
0   1   96.12    6.60   10   0   1   82.26    5.91   10   0   1
91.80    7.04  -11   0  -1  107.31    7.11  -11   0  -1  104.39
7.51   11   0   1   99.73    7.88   11   0   1   92.07    6.81   11
0   1   96.52    7.20   12   0   1   71.52    7.40   12   0   1
55.91    6.25   12   0   1   63.20    6.28   11  -1  -1    2.44
2.58   11  -1  -1    0.06    1.83   11  -1  -1    1.21    1.93  -11
1   1    2.50    2.23  -11   1   1    0.60    1.76   10  -1  -1
2.13    2.08   10  -1  -1    2.52    1.89   10  -1  -1    1.77    1.65
-10   1   1    2.83    1.89  -10   1   1    2.70    1.91    9  -1  -1
3.37    1.73    9  -1  -1    0.24    1.73    9  -1  -1    1.41    1.58
-9   1   1   -1.23    1.09   -9   1   1   -1.05    1.27   -9   1   1
1.03    1.07    8  -1  -1    7.68    2.17    8  -1  -1    5.53    1.82
8  -1  -1    8.17    2.61   -8   1   1    4.78    1.30   -8   1   1
7.68    2.16   -8   1   1    5.57    1.92    7  -1  -1    7.45    1.96
7  -1  -1    5.56    2.27    7  -1  -1    6.85    1.67   -7   1   1
5.43    1.70   -7   1   1    4.98    1.24   -7   1   1    9.14    2.08
6  -1  -1    0.35    1.69    6  -1  -1    1.55    1.26    6  -1  -1
1.16    0.96   -6   1   1    0.68    1.09   -6   1   1    1.01    1.06
-6   1   1    2.86    0.93   -6   1   1    2.15    1.18    5  -1  -1
7.99    1.39    5  -1  -1    7.25    1.97    5  -1  -1    8.45    1.52
5  -1  -1    6.71    1.57   -5   1   1    9.16    1.74   -5   1   1
8.16    1.64   -5   1   1   10.18    1.19   -5   1   1    7.95    1.46
4  -1  -1   10.03    1.53    4  -1  -1   14.90    2.28    4  -1  -1
13.90    1.59    4  -1  -1   10.11    1.34   -4   1   1   15.97
1.52   -4   1   1   11.05    1.62   -4   1   1   12.77    1.14   -4
1   1   12.94    1.66    3  -1  -1   70.72    3.98    3  -1  -1
70.63    3.37    3  -1  -1   69.42    3.17    3  -1  -1   69.55
2.51    3  -1  -1   70.87    3.14    3  -1  -1   70.66    3.31    3
-1  -1   70.36    2.37   -3   1   1   69.71    3.36   -3   1   1
69.28    2.94   -3   1   1   71.72    3.38   -3   1   1   75.01
2.70    2  -1  -1   39.09    2.06    2  -1  -1   43.36    1.71    2
-1  -1   43.14    2.26    2  -1  -1   41.35    1.97    2  -1  -1
41.90    1.88    2  -1  -1   45.40    2.08   -2   1   1   49.95
2.37   -2   1   1   41.56    1.75   -2   1   1   40.84    2.12   -2
1   1   42.48    1.82    1  -1  -1    3.81    0.44    1  -1  -1
4.18    0.49    1  -1  -1    3.67    0.47    1  -1  -1    3.66    0.55
1  -1  -1    4.67    0.47   -1   1   1    2.89    0.54   -1   1   1
4.08    0.45   -1   1   1    3.68    0.43   -1   1   1    3.16    0.46
-1   1   1    3.95    0.64    0  -1  -1    0.93    0.27    0  -1  -1
0.15    0.17    0  -1  -1    0.63    0.17    0  -1  -1    0.58    0.24
0  -1  -1    0.76    0.21    0   1   1    0.61    0.25    0   1   1
0.45    0.15    0   1   1    0.86    0.27    0   1   1    0.66    0.24
0   1   1    0.75    0.18    0   1   1    0.76    0.29   -1  -1  -1
31.02    1.57   -1  -1  -1   33.04    1.62    1   1   1   35.75
1.66    1   1   1   34.14    1.53    1   1   1   34.40    1.35    2
1   1   40.02    2.02    2   1   1   44.18    2.25    2   1   1
41.13    1.96   -3  -1  -1    1.52    0.92    3   1   1    1.53
0.69    3   1   1    2.69    1.03    3   1   1    0.81    0.61   -4
-1  -1   41.75    2.47   -4  -1  -1   41.65    2.94   -4  -1  -1
43.79    1.50    4   1   1   43.21    2.58    4   1   1   46.38
2.09    4   1   1   46.33    3.13    4   1   1   43.76    2.71   -5
-1  -1   29.51    2.34   -5  -1  -1   29.01    2.89   -5  -1  -1
27.23    1.35    5   1   1   22.56    2.23    5   1   1   24.52
2.80    5   1   1   26.79    1.71    5   1   1   29.26    2.54   -6
-1  -1    6.51    0.88   -6  -1  -1    3.65    1.20   -6  -1  -1
5.36    2.01    6   1   1    4.43    1.78    6   1   1    4.48    0.95
6   1   1    3.65    1.38    6   1   1    5.84    1.43   -7  -1  -1
2.43    2.03   -7  -1  -1    0.84    1.12    7   1   1    1.41    1.13
7   1   1    5.01    1.96    7   1   1    2.13    1.33   -8  -1  -1
110.04    5.94   -8  -1  -1  107.62    6.22   -8  -1  -1  104.30
6.63    8   1   1  102.35    5.91    8   1   1  104.30    6.12    8
1   1  103.23    6.88   -9  -1  -1   27.84    3.77   -9  -1  -1
23.32    3.26    9   1   1   33.45    3.96    9   1   1   29.67
4.32    9   1   1   28.82    3.62  -10  -1  -1   20.62    3.55  -10
-1  -1   30.24    3.82   10   1   1   29.71    4.71   10   1   1
31.89    4.24   10   1   1   28.54    3.82  -11  -1  -1   20.55
3.70  -11  -1  -1   27.91    4.36   11   1   1   30.15    4.98   11
1   1   19.51    3.71   11   1   1   30.50    4.56  -12  -1  -1
35.02    5.20  -12  -1  -1   27.13    4.34   12   1   1   37.19
5.12   12   1   1   30.37    4.94   12   1   1   30.40    5.54   11
-2  -1   22.74    3.97   11  -2  -1   20.06    4.50  -11   2   1
19.46    3.83  -11   2   1   19.79    4.13   10  -2  -1   24.93
4.44   10  -2  -1   20.85    3.45   10  -2  -1   22.04    3.94  -10
2   1   16.28    3.37  -10   2   1   14.04    3.10    9  -2  -1
61.23    4.99    9  -2  -1   64.78    6.04    9  -2  -1   54.70
5.31   -9   2   1   63.22    5.33   -9   2   1   52.12    5.13    8
-2  -1  154.33    7.43    8  -2  -1  149.22    7.86    8  -2  -1
134.69    8.28   -8   2   1  141.96    7.47   -8   2   1  129.58
7.47   -8   2   1  160.78    6.16    7  -2  -1  232.86   10.05    7
-2  -1  235.41    9.49    7  -2  -1  229.18   10.80   -7   2   1
238.31   10.12   -7   2   1  241.46    9.82   -7   2   1  243.72
8.07    6  -2  -1  140.51    6.97    6  -2  -1  144.15    6.54    6
-2  -1  148.54    7.87   -6   2   1  161.83    7.25   -6   2   1
159.63    5.57   -6   2   1  145.17    6.77    5  -2  -1  140.00
6.35    5  -2  -1  136.86    5.86    5  -2  -1  134.01    6.84   -5
2   1  137.25    6.28   -5   2   1  144.09    5.02   -5   2   1
139.98    5.02   -5   2   1  132.56    6.11    4  -2  -1  308.17
10.19    4  -2  -1  331.93    9.94    4  -2  -1  309.62   10.87    4
-2  -1  320.92   11.61    4  -2  -1  317.04   10.47   -4   2   1
311.51   10.85   -4   2   1  323.72    9.57   -4   2   1  314.64
10.50   -4   2   1  321.36   10.74   -4   2   1  311.95    9.16    3
-2  -1  207.43    6.90    3  -2  -1  202.93    5.78    3  -2  -1
214.95    6.61    3  -2  -1  206.66    7.15    3  -2  -1  202.02
5.67    3  -2  -1  211.01    7.90   -3   2   1  202.63    7.24   -3
2   1  208.49    6.25   -3   2   1  200.22    7.09   -3   2   1
201.58    7.45   -3   2   1  208.06    6.23    2  -2  -1  255.91
7.36    2  -2  -1  262.35    7.71    2  -2  -1  250.48    7.05    2
-2  -1  251.79    6.95    2  -2  -1  231.21    8.03   -2   2   1
253.15    7.12   -2   2   1  247.04    8.18   -2   2   1  247.37
8.31   -2   2   1  252.31    7.30    1  -2  -1  345.19    9.81    1
-2  -1  344.49    9.40    1  -2  -1  352.89   10.07    1  -2  -1
342.27    9.37    1  -2  -1  366.45   10.07   -1   2   1  347.12
10.05   -1   2   1  349.42    9.42   -1   2   1  346.74   10.65   -1
2   1  342.27   10.61   -1   2   1  359.11    9.83    0  -2  -1
126.44    3.76    0  -2  -1  126.91    4.20    0  -2  -1  120.43
3.71    0   2   1  123.55    3.70    0   2   1  126.88    3.72    0
2   1  127.87    4.19    0   2   1  126.40    3.90    0   2   1
115.17    4.28   -1  -2  -1  128.72    3.80   -1  -2  -1  133.60
4.81    1   2   1  138.64    4.81    1   2   1  128.03    4.53    1
2   1  130.85    3.74    1   2   1  130.65    3.70    1   2   1
137.17    4.18   -2  -2  -1  139.36    3.93    2   2   1  131.15
4.83    2   2   1  144.20    4.68   -3  -2  -1   70.56    3.78   -3
-2  -1   65.64    2.22    3   2   1   67.19    3.15    3   2   1
70.99    3.58    3   2   1   66.21    3.05   -4  -2  -1    9.50
1.24   -4  -2  -1    7.98    1.75   -4  -2  -1    6.98    0.72    4
2   1    8.10    1.32    4   2   1    6.64    1.52    4   2   1
11.80    1.52   -5  -2  -1    2.12    0.57   -5  -2  -1    1.31
1.51   -5  -2  -1    0.73    0.77    5   2   1   -0.40    0.60    5
2   1    0.78    0.78    5   2   1    1.24    1.08   -6  -2  -1
6.71    2.35   -6  -2  -1    7.50    1.56   -6  -2  -1   11.27    1.17
6   2   1    6.67    1.59    6   2   1    7.73    1.65    6   2   1
14.45    2.61   -7  -2  -1   20.22    3.48   -7  -2  -1   15.35
2.26   -7  -2  -1   23.18    1.78    7   2   1   20.73    3.29    7
2   1   21.63    2.71    7   2   1   15.25    2.48   -8  -2  -1
53.68    5.23   -8  -2  -1   55.50    3.95    8   2   1   56.06
4.28    8   2   1   60.88    5.48    8   2   1   53.98    4.15   -9
-2  -1   21.17    3.11   -9  -2  -1   20.47    3.24   -9  -2  -1
24.20    4.11    9   2   1   32.10    4.44    9   2   1   23.45
3.35    9   2   1   20.13    3.31  -10  -2  -1   30.73    3.80  -10
-2  -1   22.32    3.62   10   2   1   22.25    4.27   10   2   1
29.60    3.97   10   2   1   32.80    4.20  -11  -2  -1   42.51
4.70  -11  -2  -1   36.90    4.76   11   2   1   43.69    5.03   11
2   1   35.29    4.79   11   2   1   48.49    6.06  -12  -2  -1
30.05    4.79  -12  -2  -1   33.69    4.69   12   2   1   33.77
5.63   12   2   1   33.81    4.93   12   2   1   38.23    5.30   11
-3  -1    1.22    2.00   11  -3  -1    1.53    2.40  -11   3   1
0.96    1.80  -11   3   1   -0.12    2.23   10  -3  -1    8.22    2.56
10  -3  -1    2.28    2.27  -10   3   1    5.03    2.20  -10   3   1
3.95    2.33    9  -3  -1    7.29    2.19    9  -3  -1   12.55    3.35
-9   3   1   14.75    3.05   -9   3   1   13.76    3.18    8  -3  -1
34.32    3.74    8  -3  -1   30.24    4.21   -8   3   1   28.08
3.84   -8   3   1   24.04    3.49   -8   3   1   36.93    2.86    7
-3  -1    3.55    2.02    7  -3  -1    3.17    1.42   -7   3   1
3.71    1.71   -7   3   1    3.19    1.53   -7   3   1    4.62    1.25
6  -3  -1   73.08    4.43    6  -3  -1   75.77    5.43   -6   3   1
77.24    3.70   -6   3   1   79.21    4.99   -6   3   1   68.99
4.61    5  -3  -1   71.12    4.80    5  -3  -1   68.01    3.90   -5
3   1   57.27    4.11   -5   3   1   63.26    3.09   -5   3   1
65.52    4.05    4  -3  -1  150.19    5.96    4  -3  -1  151.78
4.57    4  -3  -1  143.01    5.83    4  -3  -1  139.37    6.60   -4
3   1  138.37    6.00   -4   3   1  138.97    6.41   -4   3   1
148.73    4.43   -4   3   1  140.16    6.02   -4   3   1  139.08
5.02    3  -3  -1  283.42    7.93    3  -3  -1  270.00    7.36    3
-3  -1  265.75    8.90    3  -3  -1  267.75    7.37   -3   3   1
285.81    9.58   -3   3   1  272.79    8.15   -3   3   1  275.35
9.76   -3   3   1  277.43    9.18   -3   3   1  287.39    7.94    2
-3  -1  219.74    7.16    2  -3  -1  216.77    6.41    2  -3  -1
224.22    6.33    2  -3  -1  225.64    6.40    2  -3  -1  212.78
6.28    2  -3  -1  206.80    7.16   -2   3   1  219.44    7.60   -2
3   1  204.41    7.74   -2   3   1  216.55    7.10   -2   3   1
220.79    6.58   -2   3   1  219.86    7.28    1  -3  -1  404.11
10.94    1  -3  -1  417.67   11.73    1  -3  -1  391.74   11.55    1
-3  -1  405.10   11.78   -1   3   1  410.87   11.61   -1   3   1
412.26   11.71   -1   3   1  387.95   12.45   -1   3   1  402.54
12.62   -1   3   1  401.99   11.06    0  -3  -1  184.94    6.30    0
-3  -1  185.99    5.57    0   3   1  190.59    5.99    0   3   1
185.08    6.56    0   3   1  191.79    6.24    0   3   1  187.36
5.63   -1  -3  -1    6.29    0.75   -1  -3  -1    9.28    1.35    1
3   1    7.06    1.09    1   3   1    8.26    0.89    1   3   1
7.73    0.98   -2  -3  -1  228.58    6.56   -2  -3  -1  229.02    8.36
2   3   1  225.89    7.61    2   3   1  228.93    6.41    2   3   1
239.78    7.30    2   3   1  217.64    7.63    2   3   1  236.23
6.33   -3  -3  -1  255.05    9.72   -3  -3  -1  267.00    7.50    3
3   1  258.07    9.16    3   3   1  270.48    8.84    3   3   1
261.76    6.89    3   3   1  273.24    8.53    3   3   1  266.84
6.94   -4  -3  -1   25.72    2.89   -4  -3  -1   20.30    1.31   -4
-3  -1   23.38    1.73    4   3   1   20.74    1.98    4   3   1
21.32    2.36    4   3   1   20.31    1.95   -5  -3  -1    3.42
1.72   -5  -3  -1    1.13    0.54   -5  -3  -1   -0.26    0.59    5
3   1    0.89    0.79    5   3   1    0.29    1.04    5   3   1
0.34    0.77   -6  -3  -1    0.23    0.62   -6  -3  -1   -0.28    0.83
-6  -3  -1    0.14    1.67    6   3   1    0.24    0.83    6   3   1
0.17    1.15    6   3   1    0.85    0.92   -7  -3  -1    0.71    0.73
-7  -3  -1    3.15    2.40   -7  -3  -1    2.91    1.30    7   3   1
2.22    1.63    7   3   1   -0.62    0.94    7   3   1    2.49    1.29
-8  -3  -1    8.00    2.88   -8  -3  -1    5.41    1.73   -8  -3  -1
10.43    1.52    8   3   1    6.11    1.92    8   3   1    6.65
2.34   -9  -3  -1   16.41    3.79   -9  -3  -1   13.23    2.48    9
3   1   12.34    2.59    9   3   1   13.11    2.71    9   3   1
16.95    3.47  -10  -3  -1   17.06    2.99  -10  -3  -1   12.56
2.93   10   3   1   19.55    3.49   10   3   1   14.84    3.46   10
3   1   13.67    2.94  -11  -3  -1   34.10    4.37  -11  -3  -1
41.80    4.94   11   3   1   36.86    4.71   11   3   1   44.21
5.11   11   3   1   34.10    5.43  -12  -3  -1   56.01    5.68   12
3   1   56.29    6.15   12   3   1   50.70    5.76   12   3   1
62.79    7.24   11  -4  -1    0.56    2.05  -11   4   1    0.77
1.74  -11   4   1    1.51    2.39   10  -4  -1   -0.99    1.36  -10
4   1    1.52    2.04  -10   4   1   -2.05    1.29    9  -4  -1
2.35    1.64    9  -4  -1    4.05    2.33   -9   4   1   -0.45    1.45
-9   4   1   -0.66    1.22    8  -4  -1   11.02    2.99    8  -4  -1
3.03    1.50   -8   4   1   10.36    2.50   -8   4   1    7.86    2.56
7  -4  -1   89.49    5.38    7  -4  -1   88.19    6.07   -7   4   1
89.36    5.78   -7   4   1   86.61    5.95   -7   4   1   97.43
4.57    6  -4  -1   61.94    4.81    6  -4  -1   68.66    4.28   -6
4   1   60.14    4.39   -6   4   1   70.71    5.02   -6   4   1
66.69    3.53    5  -4  -1   97.96    5.00    5  -4  -1   91.24
5.54   -5   4   1  101.29    4.32   -5   4   1  101.12    5.05   -5
4   1   97.23    5.61   -5   4   1   96.58    5.31    4  -4  -1
117.66    5.88    4  -4  -1  116.14    5.22   -4   4   1  117.19
5.91   -4   4   1  118.74    4.55   -4   4   1  106.22    5.31   -4
4   1  106.25    5.06   -4   4   1  126.19    5.65    3  -4  -1
254.66    9.16    3  -4  -1  270.15    9.70    3  -4  -1  272.43
9.16   -3   4   1  262.98    9.26   -3   4   1  286.42    9.22   -3
4   1  273.39    8.29   -3   4   1  261.69    9.92   -3   4   1
275.99    9.67    2  -4  -1  112.18    4.73    2  -4  -1  121.78
3.73    2  -4  -1  115.31    3.86    2  -4  -1  114.38    3.87    2
-4  -1  111.34    4.66   -2   4   1  107.68    5.19   -2   4   1
112.66    4.96   -2   4   1  102.54    4.51   -2   4   1  112.60
4.19   -2   4   1  118.55    4.78    1  -4  -1  143.75    4.70    1
-4  -1  141.68    5.30    1  -4  -1  139.62    5.22    1  -4  -1
157.17    5.07    1  -4  -1  146.61    5.19   -1   4   1  148.86
5.02   -1   4   1  141.56    6.00   -1   4   1  144.09    5.81   -1
4   1  148.07    4.98   -1   4   1  143.72    5.25   -1   4   1
150.21    5.38    0  -4  -1  158.91    5.03    0  -4  -1  157.74
5.90    0   4   1  158.61    5.60    0   4   1  161.37    5.22    0
4   1  147.07    6.04   -1  -4  -1  106.43    3.75   -1  -4  -1
101.66    4.77    1   4   1  110.69    4.66    1   4   1  107.35
3.88    1   4   1  113.12    4.28   -2  -4  -1  204.63    8.12   -2
-4  -1  211.07    6.32    2   4   1  215.46    7.05    2   4   1
203.60    7.17    2   4   1  204.35    6.26    2   4   1  204.96
7.42   -3  -4  -1  147.83    4.90   -3  -4  -1  150.13    6.94   -3
-4  -1  154.91    5.09    3   4   1  148.07    4.48    3   4   1
140.25    5.77    3   4   1  148.28    6.01    3   4   1  151.89
5.69    3   4   1  148.62    4.62   -4  -4  -1   53.32    3.99   -4
-4  -1   52.71    2.70   -4  -4  -1   48.27    2.32    4   4   1
48.75    2.97    4   4   1   47.72    1.66    4   4   1   51.06
3.09    4   4   1   47.03    3.30    4   4   1   50.27    1.72   -5
-4  -1   24.84    3.47   -5  -4  -1   24.42    1.74   -5  -4  -1
24.79    2.09    5   4   1   26.85    2.97    5   4   1   27.11
2.54    5   4   1   28.42    2.60   -6  -4  -1    1.50    1.02   -6
-4  -1    1.18    0.76   -6  -4  -1    1.47    2.00    6   4   1
0.95    0.99    6   4   1    1.75    1.48    6   4   1    0.25    1.00
-7  -4  -1   18.16    2.32   -7  -4  -1   16.13    3.63   -7  -4  -1
18.82    1.80    7   4   1   16.97    3.07    7   4   1   20.43
2.80    7   4   1   21.03    2.73   -8  -4  -1    0.93    0.86   -8
-4  -1    1.21    2.35   -8  -4  -1    1.34    1.19    8   4   1
-0.19    0.97    8   4   1    4.03    2.13    8   4   1   -0.70
0.92   -9  -4  -1    3.17    2.57   -9  -4  -1   -0.73    1.13    9
4   1   -0.34    1.22    9   4   1    1.27    1.34    9   4   1
-0.90    1.29  -10  -4  -1   -1.12    2.38  -10  -4  -1   -2.04
0.98   10   4   1   -1.83    1.69   10   4   1    0.91    1.58   10
4   1    0.04    1.36  -11  -4  -1   -0.22    1.45  -11  -4  -1
-0.62    1.49   11   4   1   -0.52    1.48   11   4   1   -1.22
1.34   11   4   1   -1.19    1.70  -12  -4  -1    4.60    2.48   12
4   1    7.56    2.90   12   4   1    3.90    2.98   12   4   1
5.31    2.54   10  -5  -1    3.51    2.14  -10   5   1   -1.06    1.85
-10   5   1    0.24    1.75  -10   5   1   -1.59    1.42    9  -5  -1
0.88    1.56   -9   5   1   -0.56    1.51   -9   5   1    0.80    1.63
-9   5   1   -0.34    1.32    8  -5  -1    0.63    1.29   -8   5   1
-1.30    1.21   -8   5   1   -0.69    1.25   -8   5   1   -1.41
1.26    7  -5  -1   22.46    3.09   -7   5   1   27.14    3.92   -7
5   1   23.70    3.45   -7   5   1   26.25    2.62   -7   5   1
18.96    2.89    6  -5  -1   37.55    3.51    6  -5  -1   42.35
4.11   -6   5   1   40.44    3.60   -6   5   1   41.54    3.94   -6
5   1   37.42    4.10   -6   5   1   39.07    2.81    5  -5  -1
134.65    6.46    5  -5  -1  144.75    7.04   -5   5   1  133.01
7.10   -5   5   1  142.31    5.58   -5   5   1  135.57    6.41   -5
5   1  139.88    6.76    4  -5  -1  136.23    6.48    4  -5  -1
128.44    6.02   -4   5   1  128.05    6.72   -4   5   1  143.22
6.37   -4   5   1  145.22    5.38   -4   5   1  135.78    6.12    3
-5  -1  105.34    5.08    3  -5  -1  102.00    5.02    3  -5  -1
109.38    5.04   -3   5   1  103.64    4.91   -3   5   1  106.04
5.27   -3   5   1  103.88    5.09   -3   5   1  105.85    4.32   -3
5   1  104.32    5.55    2  -5  -1  140.29    4.57    2  -5  -1
152.52    5.16    2  -5  -1  140.33    5.82    2  -5  -1  140.51
5.66    2  -5  -1  159.61    4.88    2  -5  -1  146.47    4.75    2
-5  -1  142.95    5.84   -2   5   1  139.94    5.26   -2   5   1
138.37    6.52   -2   5   1  150.37    5.92   -2   5   1  138.28
6.17   -2   5   1  143.51    5.85    1  -5  -1  204.26    7.38    1
-5  -1  211.49    7.54    1  -5  -1  209.41    6.55    1  -5  -1
218.44    7.55   -1   5   1  231.63    7.55   -1   5   1  225.60
7.64   -1   5   1  210.61    7.00   -1   5   1  211.70    8.43    0
-5  -1  296.82   10.28    0  -5  -1  297.87    8.72    0  -5  -1
302.22    9.29    0   5   1  294.14   10.39    0   5   1  306.89
9.72    0   5   1  289.16    8.98   -1  -5  -1  347.14   12.31   -1
-5  -1  363.42   10.55   -1  -5  -1  354.44   10.23    1   5   1
360.93   11.17    1   5   1  346.69   11.80    1   5   1  360.70
10.43   -2  -5  -1  207.93    8.68   -2  -5  -1  208.43    6.64   -2
-5  -1  209.66    6.70    2   5   1  211.44    6.73    2   5   1
204.86    7.86    2   5   1  213.07    7.47    2   5   1  223.29
7.60   -3  -5  -1  364.03   10.51   -3  -5  -1  359.91   13.46   -3
-5  -1  375.94   10.80    3   5   1  363.88   10.37    3   5   1
359.01   12.00    3   5   1  360.04   11.63    3   5   1  355.05
12.05   -4  -5  -1  206.65    6.84   -4  -5  -1  225.07    7.27   -4
-5  -1  207.70    9.68    4   5   1  218.67    6.21    4   5   1
205.49    8.29    4   5   1  211.99    8.12    4   5   1  211.23
7.90   -5  -5  -1   64.61    3.36   -5  -5  -1   54.93    2.90   -5
-5  -1   48.93    4.87    5   5   1   64.72    3.86    5   5   1
62.30    4.23    5   5   1   62.44    3.77   -6  -5  -1  133.66
5.13   -6  -5  -1  137.56    8.23   -6  -5  -1  143.51    5.83    6
5   1  125.12    6.24    6   5   1  133.96    6.39    6   5   1
125.71    6.91   -7  -5  -1   42.48    3.32   -7  -5  -1   35.60
5.02   -7  -5  -1   45.66    2.77    7   5   1   37.62    3.65    7
5   1   41.80    3.78    7   5   1   46.07    4.52   -8  -5  -1
29.42    3.04   -8  -5  -1   28.73    2.47   -8  -5  -1   32.45
5.10    8   5   1   28.52    3.53    8   5   1   35.32    4.44    8
5   1   22.19    3.20   -9  -5  -1    0.08    1.17   -9  -5  -1
0.24    2.26   -9  -5  -1    0.84    0.99    9   5   1   -0.57    1.22
9   5   1    0.73    1.78    9   5   1    0.53    1.21  -10  -5  -1
1.36    2.75  -10  -5  -1    0.51    1.35  -10  -5  -1    1.16    1.19
10   5   1    4.05    2.23   10   5   1    1.15    1.47   10   5   1
0.90    1.40   11   5   1    4.94    2.24   11   5   1    7.11    3.10
11   5   1    7.99    2.61  -12  -5  -1    1.22    1.83   12   5   1
4.89    2.98   12   5   1    4.24    2.52   10  -6  -1   -1.82    1.67
-10   6   1    1.98    2.46  -10   6   1   -1.51    1.73  -10   6   1
0.30    1.83    9  -6  -1   11.61    2.91   -9   6   1    8.26    2.95
-9   6   1    7.91    2.56   -9   6   1    7.03    2.56    8  -6  -1
6.71    2.20   -8   6   1    4.25    2.24   -8   6   1    5.55    2.07
-8   6   1    3.16    1.88    7  -6  -1    1.22    1.34   -7   6   1
0.45    1.33   -7   6   1    0.06    1.22   -7   6   1    1.98    1.32
-7   6   1    1.90    1.75    6  -6  -1   20.46    2.96   -6   6   1
26.81    3.26   -6   6   1   21.23    3.20   -6   6   1   20.03
3.44   -6   6   1   24.58    2.54    5  -6  -1   12.25    2.36   -5
6   1   13.02    2.46   -5   6   1   11.17    1.84   -5   6   1
16.96    2.60   -5   6   1   10.86    2.57    4  -6  -1   36.02
3.29    4  -6  -1   26.08    3.03   -4   6   1   38.93    3.32   -4
6   1   30.30    2.51   -4   6   1   32.57    3.23   -4   6   1
28.45    3.49    3  -6  -1   38.90    3.12    3  -6  -1   29.44
2.95   -3   6   1   35.12    3.02   -3   6   1   34.45    3.10   -3
6   1   38.25    3.67   -3   6   1   32.14    2.51    2  -6  -1
29.05    2.65    2  -6  -1   25.30    2.01    2  -6  -1   23.04
2.35    2  -6  -1   24.15    1.53   -2   6   1   19.18    2.26   -2
6   1   29.33    2.29   -2   6   1   23.86    2.44   -2   6   1
24.29    2.60   -2   6   1   25.14    2.95    1  -6  -1   15.62
1.86    1  -6  -1    9.71    1.69    1  -6  -1   11.34    1.78    1
-6  -1   12.17    1.27   -1   6   1    9.40    1.71   -1   6   1
10.68    1.53   -1   6   1    7.81    1.51   -1   6   1   10.82
2.03    0  -6  -1   11.94    1.59    0  -6  -1   15.08    1.44    0
-6  -1   14.93    2.17    0   6   1   15.41    2.23    0   6   1
12.28    1.81    0   6   1   13.77    1.64   -1  -6  -1    9.72
1.37   -1  -6  -1    9.36    1.22   -1  -6  -1   10.43    1.30   -1
-6  -1    8.93    2.03    1   6   1    8.91    1.73    1   6   1
10.67    1.31    1   6   1    9.29    1.39    1   6   1   13.27
1.80   -2  -6  -1   74.07    5.01   -2  -6  -1   81.23    3.51   -2
-6  -1   80.22    3.60    2   6   1   86.81    3.76    2   6   1
83.93    3.89    2   6   1   76.64    4.37    2   6   1   88.12
4.31   -3  -6  -1   16.62    2.94   -3  -6  -1   16.95    1.61   -3
-6  -1   20.71    1.77    3   6   1   18.37    2.04    3   6   1
13.35    2.03    3   6   1   14.41    1.99    3   6   1   17.08
1.66   -4  -6  -1    4.78    2.19   -4  -6  -1    5.76    1.13   -4
-6  -1    7.42    1.33    4   6   1    7.31    1.59    4   6   1
5.30    1.45    4   6   1    5.12    1.52    4   6   1    5.42    1.08
-5  -6  -1    1.68    2.14   -5  -6  -1    1.82    0.97   -5  -6  -1
-0.45    0.59    5   6   1    1.99    1.40    5   6   1    0.86
0.92    5   6   1    0.49    0.62    5   6   1    1.12    1.17   -6
-6  -1    0.89    0.85   -6  -6  -1    3.32    2.35   -6  -6  -1
0.61    0.95    6   6   1    0.61    1.19    6   6   1   -0.64    1.18
6   6   1   -0.32    0.91   -7  -6  -1   12.14    1.73   -7  -6  -1
9.31    3.42   -7  -6  -1   14.07    2.12    7   6   1    8.20    2.33
7   6   1   14.87    2.56    7   6   1   17.34    2.73   -8  -6  -1
-1.21    2.19   -8  -6  -1    2.19    1.06   -8  -6  -1   -0.39
1.02    8   6   1   -0.67    1.12    8   6   1   -0.48    1.04    8
6   1    0.92    1.49   -9  -6  -1    3.24    2.94   -9  -6  -1
0.12    1.00    9   6   1    0.74    1.43    9   6   1    0.64    1.83
9   6   1   -0.34    1.27   10   6   1    1.19    1.66   10   6   1
0.50    1.90   10   6   1   -0.63    1.35   11   6   1    1.33    1.90
11   6   1    2.13    2.09   11   6   1   -0.84    2.00    9  -7  -1
12.67    3.23   -9   7   1   12.04    3.47   -9   7   1   14.97
3.34   -9   7   1   17.37    3.82    8  -7  -1    7.73    2.46   -8
7   1    6.47    2.65   -8   7   1    9.98    2.72   -8   7   1
11.61    3.11    7  -7  -1    1.14    1.45   -7   7   1    2.84
1.96   -7   7   1    0.12    1.52   -7   7   1    2.48    1.69    6
-7  -1   -0.57    1.20   -6   7   1    0.66    1.25   -6   7   1
0.12    1.46   -6   7   1   -1.68    1.10   -6   7   1    1.02    1.42
5  -7  -1   -0.68    1.14   -5   7   1   -0.61    1.24   -5   7   1
0.49    1.39   -5   7   1    0.65    1.37   -5   7   1    1.15    1.13
4  -7  -1   20.61    2.95    4  -7  -1   19.57    2.75   -4   7   1
21.00    2.86   -4   7   1   20.52    2.31   -4   7   1   22.31
3.41   -4   7   1   26.11    3.21    3  -7  -1   52.80    3.87    3
-7  -1   55.63    3.98   -3   7   1   47.68    4.45   -3   7   1
62.74    4.11   -3   7   1   54.38    3.93   -3   7   1   59.91
3.51    2  -7  -1   68.13    4.06    2  -7  -1   75.35    4.38   -2
7   1   63.81    4.11   -2   7   1   64.33    4.73   -2   7   1
58.67    3.52   -2   7   1   63.49    4.02    1  -7  -1  139.03
5.92    1  -7  -1  122.72    5.96    1  -7  -1  133.07    4.66   -1
7   1  124.24    5.37   -1   7   1  134.39    5.87   -1   7   1
136.17    6.14    0  -7  -1  224.34    8.07    0  -7  -1  229.02
7.27    0  -7  -1  224.71    9.22    0   7   1  223.98    9.32    0
7   1  217.54    7.81    0   7   1  233.46    8.68   -1  -7  -1
159.46    6.20   -1  -7  -1  165.53    7.88   -1  -7  -1  161.94
5.86   -1  -7  -1  173.24    6.12    1   7   1  165.31    6.92    1
7   1  153.73    7.20    1   7   1  162.31    6.20    1   7   1
167.83    6.11   -2  -7  -1  116.35    4.86   -2  -7  -1  121.88
4.77   -2  -7  -1  111.10    6.62    2   7   1  123.50    5.02    2
7   1  120.25    5.16    2   7   1  124.95    5.74    2   7   1
110.14    5.80   -3  -7  -1  246.58    8.13   -3  -7  -1  246.76
8.27   -3  -7  -1  246.25   11.11    3   7   1  240.71    9.26    3
7   1  235.29    9.58    3   7   1  242.28    9.06    3   7   1
258.54    8.23   -4  -7  -1  329.61   10.60   -4  -7  -1  335.36
10.66   -4  -7  -1  326.90   14.26   -4  -7  -1  355.07   10.95    4
7   1  333.55   12.10    4   7   1  341.47   11.97    4   7   1
336.72   12.34    4   7   1  355.70   10.38   -5  -7  -1  317.74
14.35   -5  -7  -1  323.67   10.62    5   7   1  322.85   11.96    5
7   1  316.87    9.34    5   7   1  314.44   11.62    5   7   1
315.26   12.03   -6  -7  -1  153.78    6.20   -6  -7  -1  150.14
9.57    6   7   1  153.19    7.36    6   7   1  163.07    7.60    6
7   1  168.38    8.06   -7  -7  -1  100.09    8.04   -7  -7  -1
110.47    5.08    7   7   1  117.91    6.91    7   7   1  110.48
6.36    7   7   1  117.58    6.43   -8  -7  -1   18.01    4.44   -8
-7  -1   27.37    2.66    8   7   1   24.70    3.50    8   7   1
29.35    3.64    8   7   1   29.75    4.13   -9  -7  -1   35.13
3.06    9   7   1   43.29    5.08    9   7   1   36.03    4.38    9
7   1   29.31    3.90   10   7   1   12.82    3.54   10   7   1
13.59    3.08   10   7   1   11.66    2.99   11   7   1   12.82
3.30   11   7   1    4.25    2.52   11   7   1    7.80    2.99    8
-8  -1   -1.75    1.55   -8   8   1   -0.17    1.97   -8   8   1
-2.87    1.32   -8   8   1    0.46    1.77    7  -8  -1    2.29
1.87   -7   8   1    1.40    1.71   -7   8   1    0.39    1.50   -7
8   1    0.19    1.66    6  -8  -1    2.75    1.68   -6   8   1
2.86    1.83   -6   8   1    0.76    1.56   -6   8   1    3.54    1.64
-6   8   1    0.84    1.66    5  -8  -1   -0.14    1.17   -5   8   1
1.04    1.43   -5   8   1    1.24    1.20   -5   8   1    1.62    1.35
-5   8   1   -0.74    1.23    4  -8  -1   -0.34    1.07    4  -8  -1
0.61    1.22   -4   8   1    0.54    1.36   -4   8   1    0.60    1.41
-4   8   1    1.21    1.47   -4   8   1    0.46    1.10    3  -8  -1
2.39    1.49    3  -8  -1    0.74    1.23   -3   8   1    2.53    1.47
-3   8   1    5.15    1.48   -3   8   1    3.67    1.88   -3   8   1
1.64    1.36    2  -8  -1   -0.72    0.96    2  -8  -1   -0.44    1.12
-2   8   1   -0.48    1.05   -2   8   1    1.16    1.31   -2   8   1
1.08    1.22   -2   8   1    0.76    1.34    1  -8  -1    0.45    0.79
1  -8  -1    2.16    1.22   -1   8   1   -0.97    0.83   -1   8   1
-1.04    0.95   -1   8   1    1.56    1.35   -1   8   1    1.11
1.20    0  -8  -1    1.59    1.66    0  -8  -1    2.68    0.97    0
-8  -1    0.52    1.02    0   8   1    0.38    1.13    0   8   1
1.04    1.13    0   8   1    2.16    1.33   -1  -8  -1    1.48    1.01
-1  -8  -1    1.87    2.07   -1  -8  -1    1.15    0.90    1   8   1
2.68    1.39    1   8   1    3.67    1.47    1   8   1    1.28    1.20
-2  -8  -1   10.71    2.88   -2  -8  -1   11.41    1.59   -2  -8  -1
15.75    1.94    2   8   1   10.36    2.08    2   8   1   14.96
2.55    2   8   1    9.20    1.73   -3  -8  -1    2.77    1.07   -3
-8  -1   -0.35    0.83   -3  -8  -1    7.26    2.72    3   8   1
1.82    1.28    3   8   1   -1.07    0.83    3   8   1    1.64    1.12
3   8   1    3.28    1.27   -4  -8  -1   17.52    3.85   -4  -8  -1
18.98    2.03    4   8   1   15.19    2.34    4   8   1   19.75
2.78    4   8   1   16.30    2.61    4   8   1   14.50    1.86   -5
-8  -1   12.41    1.85   -5  -8  -1   17.81    3.99   -5  -8  -1
13.39    1.89    5   8   1   10.74    2.29    5   8   1   12.24
2.37    5   8   1   11.52    2.35    5   8   1   16.56    1.69   -6
-8  -1    0.27    2.26   -6  -8  -1    2.97    1.15    6   8   1
4.23    1.74    6   8   1    0.50    1.36    6   8   1    1.92    1.31
-7  -8  -1    6.50    3.14   -7  -8  -1    5.45    1.45    7   8   1
5.80    1.94    7   8   1    7.99    2.46    7   8   1    7.89    2.04
-8  -8  -1    2.21    1.25    8   8   1    4.67    1.94    8   8   1
-0.05    1.26    8   8   1    3.37    1.95    9   8   1    7.45
2.52    9   8   1   10.82    2.93    9   8   1    4.94    2.20   10
8   1    9.11    2.73   10   8   1    4.78    2.39   10   8   1
4.03    2.45   11   8   1    3.12    2.33   11   8   1    0.42    2.17
8  -9  -1   38.29    4.99   -8   9   1   39.16    5.84   -8   9   1
44.82    5.23   -8   9   1   47.12    5.61    7  -9  -1   50.76
5.34   -7   9   1   52.47    5.55   -7   9   1   41.19    5.68   -7
9   1   48.67    5.23    6  -9  -1   35.40    4.38   -6   9   1
35.49    4.49   -6   9   1   27.57    4.70   -6   9   1   37.59
4.41    5  -9  -1   32.25    3.98   -5   9   1   30.65    3.88   -5
9   1   22.73    4.04   -5   9   1   32.29    4.05   -5   9   1
27.56    3.09    4  -9  -1   -0.29    1.41    4  -9  -1   -1.46
1.20   -4   9   1    0.58    1.50   -4   9   1    1.92    1.76   -4
9   1    1.73    1.53   -4   9   1    1.73    1.34    3  -9  -1
0.65    1.29    3  -9  -1   -0.74    1.19   -3   9   1    0.72    1.42
-3   9   1   -0.96    1.13   -3   9   1    2.31    1.89   -3   9   1
1.09    1.15    2  -9  -1    0.66    1.14   -2   9   1    3.12    1.41
-2   9   1    3.18    1.68   -2   9   1    0.83    1.30   -2   9   1
1.27    1.37    1  -9  -1   24.07    2.89   -1   9   1   29.66    3.31
-1   9   1   26.26    3.59   -1   9   1   21.73    2.54    0  -9  -1
55.71    3.85    0  -9  -1   57.35    2.96    0   9   1   54.73
3.86    0   9   1   51.40    4.68    0   9   1   48.59    3.50    0
9   1   60.55    4.25   -1  -9  -1   45.75    3.34   -1  -9  -1
46.44    2.81   -1  -9  -1   44.51    4.68    1   9   1   47.37
3.33    1   9   1   46.62    4.29    1   9   1   43.19    3.81   -2
-9  -1   73.72    5.97   -2  -9  -1   77.81    3.92    2   9   1
80.25    5.24    2   9   1   73.61    4.87    2   9   1   73.53
4.20   -3  -9  -1  100.59    4.68   -3  -9  -1   98.04    7.26    3
9   1   95.92    5.92    3   9   1  112.52    6.01    3   9   1
100.80    4.87   -4  -9  -1  117.15    5.25   -4  -9  -1  112.66
8.19    4   9   1  123.64    5.25    4   9   1  114.33    6.48    4
9   1  106.45    6.27   -5  -9  -1  106.02    5.04   -5  -9  -1
79.88    7.59    5   9   1  116.76    4.69    5   9   1  100.17
5.86    5   9   1  104.10    6.16    5   9   1   95.92    5.99   -6
-9  -1   94.54    8.22   -6  -9  -1   89.52    4.71    6   9   1
83.47    5.64    6   9   1   80.38    5.57    6   9   1   97.03
5.99    7   9   1   78.65    5.69    7   9   1   78.26    5.55    7
9   1   81.14    5.59    8   9   1   77.81    6.02    8   9   1
64.33    5.65    8   9   1   80.41    5.83    9   9   1   52.85
5.46    9   9   1   55.01    5.32    9   9   1   50.18    5.62   10
9   1   50.04    5.68   10   9   1   34.77    5.24    7 -10  -1
1.76    2.23   -7  10   1    0.23    2.13   -7  10   1    5.02    2.83
-7  10   1    1.14    2.02    6 -10  -1    1.36    2.01   -6  10   1
-0.40    1.56   -6  10   1    3.38    2.10   -6  10   1    1.40
2.08    5 -10  -1    3.51    2.17   -5  10   1    7.19    2.54   -5
10   1    8.94    3.07   -5  10   1    2.72    2.06    4 -10  -1
-0.59    1.47    4 -10  -1    0.69    1.58   -4  10   1    3.15
1.92   -4  10   1   -0.21    1.58   -4  10   1    0.27    1.54   -4
10   1    1.31    1.38    3 -10  -1    1.11    1.57   -3  10   1
-0.09    1.23   -3  10   1    1.24    1.46   -3  10   1   -0.07
1.39   -3  10   1   -1.51    1.25    2 -10  -1   -0.73    1.14   -2
10   1    2.23    1.51   -2  10   1    1.25    1.44   -2  10   1
0.32    1.42   -2  10   1   -0.98    1.38    1 -10  -1    3.97    1.70
-1  10   1    2.88    1.68   -1  10   1    5.44    1.63   -1  10   1
-0.03    0.93   -1  10   1    4.29    1.97    0  10   1    0.63
1.37    0  10   1   -0.42    1.21    0  10   1    0.70    1.16   -1
-10  -1    9.50    1.55    1  10   1    3.05    1.61    1  10   1
8.61    2.29    1  10   1    8.27    1.81   -2 -10  -1   21.12    3.92
-2 -10  -1   20.45    2.12    2  10   1   20.54    3.22    2  10   1
21.10    2.51    2  10   1   16.21    2.79   -3 -10  -1   30.96
4.73   -3 -10  -1   31.05    2.65    3  10   1   29.02    3.74    3
10   1   30.79    2.86    3  10   1   29.00    3.56   -4 -10  -1
22.26    4.52   -4 -10  -1   30.75    2.72    4  10   1   35.01
3.95    4  10   1   30.60    2.76    4  10   1   28.21    3.65   -5
-10  -1   17.91    4.40   -5 -10  -1   17.81    2.31    5  10   1
19.35    3.25    5  10   1   20.58    3.26    5  10   1   18.82
2.15    6  10   1   49.35    4.85    6  10   1   54.39    4.96    7
10   1   49.31    4.97    7  10   1   40.06    4.50    8  10   1
34.35    4.41    8  10   1   45.92    5.13    8  10   1   44.48
5.01    9  10   1   42.15    5.27    9  10   1   36.01    4.89    6
-11  -1   65.69    6.37   -6  11   1   63.68    6.16   -6  11   1
48.75    6.65   -6  11   1   57.81    6.01    5 -11  -1   33.14
4.67   -5  11   1   30.41    5.19   -5  11   1   27.44    4.45   -5
11   1   38.38    4.80    4 -11  -1   31.14    4.30   -4  11   1
34.75    4.50   -4  11   1   40.01    4.68   -4  11   1   27.67
4.60    3 -11  -1   18.68    3.31   -3  11   1   13.45    3.24   -3
11   1   20.41    3.57   -3  11   1   15.86    3.19   -2  11   1
6.76    2.33   -2  11   1    9.11    2.71   -1  11   1    1.66    1.71
-1  11   1    4.51    2.13    0  11   1   -0.06    1.28    0  11   1
-0.30    1.18    0  11   1    1.47    1.46    1  11   1    6.39
2.20    1  11   1    4.54    1.56    1  11   1    5.14    1.96   -2
-11  -1    6.73    1.56    2  11   1    5.67    1.75    2  11   1
7.88    2.40    2  11   1    6.06    2.19   -3 -11  -1   16.15    4.05
-3 -11  -1   15.40    2.13    3  11   1   20.01    2.55    3  11   1
20.91    3.50    3  11   1   17.25    3.14   -4 -11  -1    6.82
1.62   -4 -11  -1    4.93    3.12    4  11   1    6.16    2.08    4
11   1    8.84    2.44    4  11   1    8.46    1.88    5  11   1
5.82    1.57    5  11   1    2.25    1.78    5  11   1    5.25    2.22
6  11   1   39.24    4.47    6  11   1   28.65    4.17    7  11   1
18.70    3.50    7  11   1   17.14    3.54    8  11   1   36.03
4.90    9  11   1   44.60    5.63   -4  12   1   28.13    4.90   -4
12   1   26.00    4.40   -3  12   1   29.80    4.94   -3  12   1
35.44    4.64   -2  12   1   39.06    4.71   -2  12   1   33.87
5.00   -1  12   1    5.10    2.33   -1  12   1    6.85    2.51    0
12   1    0.48    1.53    0  12   1    0.25    1.60    1  12   1
2.11    1.69    1  12   1    1.91    1.71    2  12   1    2.76    1.91
2  12   1    0.69    1.53   -3 -12  -1    5.48    1.61    3  12   1
7.72    2.37    3  12   1    7.86    2.49    4  12   1    2.29    1.90
4  12   1    9.38    2.68    5  12   1   15.15    3.20    5  12   1
16.02    3.37    6  12   1   40.96    4.92    6  12   1   32.31
4.59    7  12   1   63.15    6.18    8  12   1   53.35    5.98   -3
13   1   20.68    4.50   -2  13   1   19.48    3.90   -2  13   1
24.72    4.50   -1  13   1    4.26    2.42   -1  13   1    4.66
2.51    0  13   1    8.33    2.71    0  13   1    2.72    2.12    1
13   1    1.29    1.89    1  13   1    0.93    1.77    2  13   1
1.83    2.05    2  13   1    1.68    2.01    3  13   1    0.87    2.02
3  13   1    0.96    1.86    4  13   1    1.27    2.11    4  13   1
2.14    1.85    5  13   1    4.96    2.48    5  13   1    0.20    1.69
6  13   1    1.34    2.19    0  14   1   34.61    5.20    1  14   1
34.95    4.91    1  14   1   31.96    5.01    2  14   1   13.57
3.65    2  14   1    9.61    3.22    3  14   1    3.66    2.50    3
14   1    2.34    2.19    4  14   1   -0.38    2.07    5  13  -2
-1.75    2.02    4  13  -2   16.67    3.94    3  13  -2   10.93
3.35    2  13  -2   39.75    5.21    1  13  -2   23.96    4.34    0
13  -2   41.67    5.27   -1  13  -2   35.32    5.08    1 -13   2
37.50    4.66   -2  13  -2   45.90    5.27   -2  13  -2   42.48
5.53    2 -13   2   36.44    4.81    7  12  -2    0.35    1.85    6
12  -2    0.86    2.00    5  12  -2    1.72    2.10    4  12  -2
4.83    2.58    3  12  -2   12.94    3.26    2  12  -2   13.47    3.26
-2 -12   2   16.44    3.08    1  12  -2   16.40    3.56   -1 -12   2
15.48    3.08    0  12  -2    4.68    2.33    0 -12   2   14.57
2.99   -1  12  -2   38.31    4.90   -1  12  -2   34.80    4.51   -1
12  -2   29.72    4.36    1 -12   2   32.48    4.21   -2  12  -2
23.29    3.92   -2  12  -2   23.27    4.15   -2  12  -2   19.09
3.76    2 -12   2   21.25    3.74   -3  12  -2   16.41    3.70   -3
12  -2   14.25    3.29   -3  12  -2   23.13    4.28    3 -12   2
19.77    3.68   -4  12  -2   14.47    3.50   -4  12  -2   30.70
4.68   -4  12  -2   33.09    4.99    4 -12   2   16.90    3.59    8
11  -2   21.63    4.26    7  11  -2   11.94    3.20    6  11  -2
8.98    2.79    5  11  -2    2.94    2.12    4  11  -2    0.80    1.68
-4 -11   2    0.03    1.36   -4 -11   2    2.24    2.49    3  11  -2
6.98    2.43    3  11  -2    3.11    2.50   -3 -11   2    4.02    1.88
-3 -11   2    2.57    2.15    2  11  -2    0.47    1.66    2  11  -2
3.78    2.72   -2 -11   2    3.17    1.70    1  11  -2   31.40    4.91
1  11  -2   30.79    3.48    1  11  -2   30.99    4.16   -1 -11   2
31.49    3.73    0  11  -2   31.81    5.05    0  11  -2   37.05
3.69    0  11  -2   32.93    4.27    0  11  -2   42.81    4.46    0
-11   2   31.78    3.84   -1  11  -2   62.53    5.49   -1  11  -2
56.84    4.45   -1  11  -2   54.70    5.26    1 -11   2   64.17
5.20   -2  11  -2  101.18    5.64   -2  11  -2   94.66    6.34   -2
11  -2   98.21    6.81   -2  11  -2   80.95    6.22    2 -11   2
85.42    6.09   -3  11  -2   79.88    6.57   -3  11  -2   73.52
6.03   -3  11  -2   77.42    6.46    3 -11   2   62.35    5.67   -4
11  -2   77.89    6.56   -4  11  -2   81.59    6.80   -4  11  -2
75.91    6.92    4 -11   2   90.32    6.41   -5  11  -2   82.35
7.14   -5  11  -2   88.95    7.67   -5  11  -2   87.95    7.07    5
-11   2   81.50    7.10    5 -11   2   65.77    6.37   -6  11  -2
65.79    6.79   -6  11  -2   78.71    7.05   -6  11  -2   61.38
6.85    6 -11   2   67.17    6.82    6 -11   2   72.49    6.70    9
10  -2    2.45    2.38    8  10  -2    4.97    2.65    7  10  -2
7.51    2.64    6  10  -2    3.08    1.99   -6 -10   2    1.06    1.16
-6 -10   2    0.48    1.39    5  10  -2    4.60    1.88    5  10  -2
4.91    2.20   -5 -10   2    5.39    1.96   -5 -10   2    6.97    1.50
-5 -10   2    7.13    3.03    4  10  -2    0.89    1.31    4  10  -2
1.30    2.09    4  10  -2    0.87    1.43   -4 -10   2    1.31    1.47
-4 -10   2    1.20    2.16    3  10  -2    0.28    1.81    3  10  -2
-0.04    1.27    3  10  -2    0.05    1.32   -3 -10   2    0.23
1.24   -3 -10   2    1.56    1.99    2  10  -2   10.18    2.24    2
10  -2   10.63    2.72    2  10  -2   11.37    2.35    2  10  -2
11.46    2.96   -2 -10   2    5.39    1.91   -2 -10   2    9.94
2.72    1  10  -2   -0.71    1.22    1  10  -2    0.97    2.07    1
10  -2   -0.33    1.37    1  10  -2   -0.35    1.12   -1 -10   2
-0.13    1.09    0  10  -2   -2.31    1.45    0  10  -2   -0.38
1.36    0  10  -2   -0.10    1.24    0  10  -2    0.30    1.26    0
-10   2    0.57    1.31   -1  10  -2    1.38    1.45   -1  10  -2
0.99    2.09   -1  10  -2    0.53    1.48   -1  10  -2   -0.13    1.33
1 -10   2    1.33    1.35   -2  10  -2    2.28    1.73   -2  10  -2
5.56    1.96   -2  10  -2    4.30    1.88   -2  10  -2    4.78    2.57
-2  10  -2    5.35    1.89    2 -10   2    5.19    1.99   -3  10  -2
-0.30    1.53   -3  10  -2   -0.38    1.43   -3  10  -2   -0.81
1.24    3 -10   2   -0.54    1.17   -4  10  -2    3.70    1.84   -4
10  -2    2.76    2.00   -4  10  -2    0.89    1.73    4 -10   2
2.22    1.70    4 -10   2    3.68    2.27   -5  10  -2    4.40    2.36
-5  10  -2    1.76    1.80   -5  10  -2    2.58    2.16    5 -10   2
5.02    2.20    5 -10   2    7.53    2.59   -6  10  -2    0.64    1.95
-6  10  -2   -1.36    1.57   -6  10  -2    2.61    2.18    6 -10   2
0.31    1.89    6 -10   2   -1.14    1.57   -7  10  -2   -0.07    1.88
-7  10  -2   -0.92    1.93   -7  10  -2   -0.46    1.80    7 -10   2
2.02    2.18    7 -10   2   -1.14    1.68   10   9  -2   89.58    7.94
9   9  -2  105.46    7.70    9   9  -2   72.29    6.81    8   9  -2
77.32    6.60    8   9  -2   86.53    6.57   -8  -9   2   88.70
5.93    7   9  -2   59.74    5.60    7   9  -2   69.04    4.21   -7
-9   2   64.15    4.93    6   9  -2   57.92    4.08    6   9  -2
63.70    5.48   -6  -9   2   61.83    3.71   -6  -9   2   61.29
6.82   -6  -9   2   70.13    4.95    5   9  -2   33.19    4.10    5
9  -2   40.57    3.49   -5  -9   2   43.60    2.89   -5  -9   2
41.35    3.89   -5  -9   2   43.73    5.75    4   9  -2   70.18
4.49    4   9  -2   61.37    5.17    4   9  -2   64.22    5.56   -4
-9   2   69.84    3.48   -4  -9   2   63.31    4.48   -4  -9   2
76.72    6.79    3   9  -2   40.70    3.63    3   9  -2   53.84
3.81    3   9  -2   41.03    4.67    3   9  -2   44.32    4.37   -3
-9   2   53.64    5.38   -3  -9   2   55.70    4.03    2   9  -2
8.03    2.06    2   9  -2   10.02    2.09    2   9  -2    6.50    2.05
2   9  -2    8.13    2.72   -2  -9   2    7.41    1.94   -2  -9   2
3.73    1.99    1   9  -2   -1.11    1.12    1   9  -2    0.53    1.18
1   9  -2    0.00    1.37    1   9  -2   -1.20    1.54   -1  -9   2
1.23    1.19   -1  -9   2    0.23    1.29    0   9  -2   10.78    2.26
0   9  -2    8.75    2.88    0   9  -2    7.27    2.15    0   9  -2
5.82    1.85    0  -9   2    8.85    2.06   -1   9  -2   32.06    3.61
-1   9  -2   27.04    2.97   -1   9  -2   29.43    4.36   -1   9  -2
30.56    3.71    1  -9   2   32.58    3.52   -2   9  -2   32.35
3.91   -2   9  -2   31.50    3.77   -2   9  -2   33.33    3.99   -2
9  -2   36.89    3.20   -2   9  -2   31.74    4.53    2  -9   2
33.93    3.72   -3   9  -2   51.91    5.01   -3   9  -2   67.24
5.45   -3   9  -2   67.65    5.00   -3   9  -2   58.53    5.97    3
-9   2   66.38    4.93    3  -9   2   58.40    5.15   -4   9  -2
59.97    5.16   -4   9  -2   47.47    5.05   -4   9  -2   59.68
5.32    4  -9   2   60.00    5.34    4  -9   2   57.83    5.04   -5
9  -2   69.07    5.84   -5   9  -2   68.74    6.11   -5   9  -2
76.51    5.83    5  -9   2   64.65    5.64    5  -9   2   73.05
6.02   -6   9  -2   77.53    6.55   -6   9  -2   79.94    6.53   -6
9  -2   79.14    6.89    6  -9   2   77.38    6.44    6  -9   2
82.64    6.27   -7   9  -2   69.87    6.47   -7   9  -2   70.53
6.86   -7   9  -2   68.79    6.33    7  -9   2   74.07    6.51    7
-9   2   68.52    6.45   -8   9  -2   68.70    6.63   -8   9  -2
70.40    7.20   -8   9  -2   74.45    6.95    8  -9   2   58.33
6.22   10   8  -2   -1.22    2.03   10   8  -2    1.24    1.79  -10
-8   2    0.19    1.65    9   8  -2   -2.05    1.76    9   8  -2
-0.27    1.45   -9  -8   2    0.30    1.49    8   8  -2    4.20
2.30    8   8  -2    4.29    2.07   -8  -8   2    3.59    1.76    7
8  -2    2.32    1.95    7   8  -2    1.93    1.32    7   8  -2
2.26    1.59   -7  -8   2    1.54    1.50   -7  -8   2    1.58    1.02
-7  -8   2    3.71    2.75    6   8  -2    1.07    1.32    6   8  -2
1.25    1.64    6   8  -2   -2.47    1.05   -6  -8   2   -1.82    0.93
-6  -8   2    0.45    0.86   -6  -8   2    0.03    1.91    5   8  -2
7.74    2.08    5   8  -2    5.45    1.76   -5  -8   2    5.07    1.25
-5  -8   2   11.06    3.40   -5  -8   2   10.70    2.25    4   8  -2
1.52    1.37    4   8  -2    1.17    0.99    4   8  -2   -0.70    1.54
4   8  -2   -0.41    1.39   -4  -8   2    2.16    0.96   -4  -8   2
0.18    1.04   -4  -8   2    1.31    2.07    3   8  -2    1.19    0.99
3   8  -2    1.45    1.46    3   8  -2    0.12    1.76    3   8  -2
-0.35    1.13   -3  -8   2   -1.06    1.58   -3  -8   2    0.24
0.71   -3  -8   2    0.10    0.99    2   8  -2   -0.30    1.37    2
8  -2   -0.25    1.22    2   8  -2    5.24    2.21    2   8  -2
0.66    0.99   -2  -8   2   -0.14    1.54   -2  -8   2    0.16    0.97
-2  -8   2   -0.06    0.62    1   8  -2    4.55    2.29    1   8  -2
5.43    1.75    1   8  -2    2.09    1.16    1   8  -2    3.64    1.61
-1  -8   2    2.40    1.60   -1  -8   2    4.19    1.54    0   8  -2
-1.86    1.09    0   8  -2    0.89    1.11    0   8  -2    0.83
1.38    0   8  -2   -0.79    1.49    0  -8   2    4.41    1.58    0
-8   2   -0.73    0.81   -1   8  -2    3.03    1.55   -1   8  -2
-0.09    1.26   -1   8  -2    2.79    1.41   -1   8  -2    2.56
1.99    1  -8   2    3.42    1.46   -2   8  -2    2.68    1.45   -2
8  -2    5.77    1.94   -2   8  -2    2.25    2.08   -2   8  -2
4.24    1.69    2  -8   2    1.99    1.43    2  -8   2    2.60    1.55
-3   8  -2    8.67    2.27   -3   8  -2    5.11    1.81   -3   8  -2
6.97    2.58   -3   8  -2    5.28    2.00    3  -8   2    3.32    1.64
3  -8   2    1.76    1.59   -4   8  -2    7.44    2.26   -4   8  -2
9.07    2.84   -4   8  -2    7.47    2.16   -4   8  -2    8.29    2.23
4  -8   2    6.47    2.11    4  -8   2    6.26    2.05   -5   8  -2
3.41    1.87   -5   8  -2    4.38    1.83   -5   8  -2    1.54    1.47
5  -8   2    3.54    1.84    5  -8   2    3.38    1.73   -6   8  -2
5.76    2.14   -6   8  -2   11.59    2.86   -6   8  -2   10.36    2.81
6  -8   2   11.61    2.91    6  -8   2    6.56    2.25   -7   8  -2
3.37    1.97   -7   8  -2    2.73    2.16   -7   8  -2    5.36    2.42
7  -8   2    3.35    2.01    7  -8   2    9.56    2.69   -8   8  -2
9.13    2.91   -8   8  -2   12.77    3.32   -8   8  -2    5.72    2.74
8  -8   2    7.29    2.55   11   7  -2   66.59    7.51  -11  -7   2
80.94    6.52   10   7  -2   74.63    6.66   10   7  -2   73.79
7.23  -10  -7   2   81.19    5.98    9   7  -2  121.05    8.20    9
7  -2  124.49    7.64   -9  -7   2  111.28    6.85    8   7  -2
117.28    7.58    8   7  -2  115.85    7.03   -8  -7   2  100.37
6.23    7   7  -2  121.13    5.45    7   7  -2  121.66    7.47    7
7  -2  124.73    7.05   -7  -7   2  124.55    5.54   -7  -7   2
135.89    6.87   -7  -7   2  124.50    8.82    6   7  -2  120.46
5.61    6   7  -2  120.34    6.74    6   7  -2  116.20    6.79   -6
-7   2  117.90    6.24   -6  -7   2  117.44    8.30   -6  -7   2
123.85    5.31    5   7  -2  162.45    6.87    5   7  -2  167.05
6.94    5   7  -2  151.31    7.57    5   7  -2  165.13    7.78   -5
-7   2  170.30    7.39   -5  -7   2  151.92    9.31   -5  -7   2
157.86    6.12    4   7  -2  164.71    7.61    4   7  -2  144.05
6.79    4   7  -2  157.74    6.50    4   7  -2  145.39    7.44    4
7  -2  150.12    6.61   -4  -7   2  150.10    6.87   -4  -7   2
153.90    8.87   -4  -7   2  158.30    5.72    3   7  -2  102.88
4.88    3   7  -2   88.22    5.74    3   7  -2   95.71    4.95    3
7  -2   96.04    5.54    3   7  -2   96.32    4.74   -3  -7   2
103.28    6.64   -3  -7   2   95.67    3.94   -3  -7   2  104.79
5.19    2   7  -2   48.92    3.43    2   7  -2   49.08    3.72    2
7  -2   48.29    4.44    2   7  -2   41.48    3.09   -2  -7   2
48.90    4.50   -2  -7   2   46.99    3.37    1   7  -2   58.85
3.65    1   7  -2   51.75    3.50    1   7  -2   55.75    4.02    1
7  -2   61.96    5.04   -1  -7   2   54.90    3.74   -1  -7   2
67.31    4.60    0   7  -2   41.62    4.34    0   7  -2   56.67
3.44    0   7  -2   55.76    3.97    0   7  -2   52.74    3.63    0
-7   2   54.08    3.70    0  -7   2   57.59    3.87   -1   7  -2
16.75    3.14   -1   7  -2   15.56    2.04   -1   7  -2   17.77
2.60   -1   7  -2   15.41    2.42    1  -7   2   15.60    2.36    1
-7   2   15.45    1.98   -2   7  -2    5.82    1.82   -2   7  -2
4.84    1.76   -2   7  -2    4.11    2.28   -2   7  -2    5.68    1.50
2  -7   2    1.37    1.19    2  -7   2    3.86    1.58   -3   7  -2
1.11    1.17   -3   7  -2    2.00    1.90   -3   7  -2    0.74    1.21
-3   7  -2    0.84    1.40    3  -7   2   -1.91    0.78    3  -7   2
0.97    1.27   -4   7  -2   25.61    3.35   -4   7  -2   18.86    2.97
-4   7  -2   21.07    3.06   -4   7  -2   23.08    3.69    4  -7   2
19.63    2.91    4  -7   2   23.54    3.22   -5   7  -2   40.46
4.31   -5   7  -2   47.60    4.37   -5   7  -2   45.78    4.37    5
-7   2   45.90    4.29    5  -7   2   38.87    4.08   -6   7  -2
19.12    3.49   -6   7  -2   19.13    3.31   -6   7  -2   22.16
3.50    6  -7   2   16.77    3.12    6  -7   2   21.60    3.51   -7
7  -2   26.73    3.90   -7   7  -2   30.63    4.33   -7   7  -2
23.57    3.82    7  -7   2   21.50    3.52    7  -7   2   26.57
4.06   -8   7  -2   36.13    4.88   -8   7  -2   33.24    4.48   -8
7  -2   41.73    5.28    8  -7   2   37.37    4.62   -9   7  -2
19.13    3.95   -9   7  -2   21.59    4.05   -9   7  -2   23.93
4.44    9  -7   2   26.28    4.20   11   6  -2    5.26    2.78   11
6  -2   -0.13    1.83  -11  -6   2    1.28    1.89   10   6  -2
2.01    2.23   10   6  -2    2.14    1.74  -10  -6   2    3.61    2.01
9   6  -2   24.51    4.50    9   6  -2   30.75    4.17   -9  -6   2
20.72    3.31    8   6  -2   23.23    4.08    8   6  -2   18.73
3.14   -8  -6   2   20.58    3.14   -8  -6   2   21.02    4.39   -8
-6   2   18.42    2.30    7   6  -2   25.87    2.37    7   6  -2
23.65    3.81    7   6  -2   32.21    3.74    7   6  -2   28.01
3.00   -7  -6   2   29.50    3.32   -7  -6   2   28.17    4.65   -7
-6   2   25.63    2.40    6   6  -2   24.71    3.21    6   6  -2
23.25    3.48    6   6  -2   27.43    2.67    6   6  -2   25.35
2.59   -6  -6   2   21.21    2.12   -6  -6   2   24.85    2.94   -6
-6   2   18.72    3.88    5   6  -2   12.18    2.52    5   6  -2
12.01    2.09    5   6  -2    9.97    2.10    5   6  -2   11.22
1.76   -5  -6   2   14.13    1.67   -5  -6   2   10.81    2.05   -5
-6   2    7.54    2.71    4   6  -2   19.55    2.55    4   6  -2
15.13    2.41    4   6  -2   11.34    2.34    4   6  -2   16.67
2.28    4   6  -2   16.88    1.90   -4  -6   2   12.87    2.12   -4
-6   2   12.31    1.49   -4  -6   2   14.11    3.19    3   6  -2
52.96    3.02    3   6  -2   45.49    3.42    3   6  -2   51.68
3.91    3   6  -2   49.77    3.33    3   6  -2   46.81    3.30   -3
-6   2   44.76    2.41   -3  -6   2   50.79    3.40   -3  -6   2
36.65    4.17    2   6  -2   29.30    2.31    2   6  -2   34.07
2.73    2   6  -2   31.46    3.32    2   6  -2   33.00    2.33    2
6  -2   26.97    2.81   -2  -6   2   30.78    3.44   -2  -6   2
28.36    2.62   -2  -6   2   34.66    1.83    1   6  -2   91.21
4.27    1   6  -2   74.44    3.96    1   6  -2   86.93    4.66    1
6  -2   81.77    5.15   -1  -6   2   82.08    4.93   -1  -6   2
86.59    4.31   -1  -6   2   82.11    2.58    0   6  -2   34.12
2.62    0   6  -2   31.25    2.42    0   6  -2   34.58    3.65    0
6  -2   28.62    2.79    0  -6   2   25.86    2.61    0  -6   2
28.89    2.66   -1   6  -2   33.26    3.08   -1   6  -2   37.34
3.85   -1   6  -2   39.80    3.07   -1   6  -2   35.93    2.57    1
-6   2   39.03    2.98    1  -6   2   44.90    2.76   -2   6  -2
9.17    1.99   -2   6  -2    9.82    1.46   -2   6  -2   10.33    2.02
-2   6  -2   11.36    2.56    2  -6   2   10.06    1.31    2  -6   2
10.37    2.02    2  -6   2   10.40    2.01   -3   6  -2    0.49
1.07   -3   6  -2    0.45    1.59   -3   6  -2    0.67    1.16   -3
6  -2   -1.17    0.82    3  -6   2    1.34    1.23    3  -6   2
1.92    1.28   -4   6  -2    4.61    1.66   -4   6  -2    2.52    1.42
-4   6  -2    3.97    2.18   -4   6  -2    4.40    1.53    4  -6   2
6.06    1.78    4  -6   2    3.18    1.37   -5   6  -2   25.16    3.43
-5   6  -2   24.37    3.28   -5   6  -2   21.97    3.07   -5   6  -2
27.61    3.79    5  -6   2   25.23    3.32    5  -6   2   34.78
3.60   -6   6  -2   15.59    2.98   -6   6  -2   17.21    2.95   -6
6  -2   18.44    3.29    6  -6   2   10.91    2.40    6  -6   2
16.78    3.06   -7   6  -2   13.97    2.82   -7   6  -2    7.47
2.48   -7   6  -2   15.41    3.03    7  -6   2   11.98    2.64   -8
6  -2   21.04    3.62   -8   6  -2   20.21    3.81   -8   6  -2
22.28    3.66    8  -6   2   18.64    3.30   -9   6  -2   27.40
4.69   -9   6  -2   25.62    4.21   -9   6  -2   23.88    4.17    9
-6   2   30.66    4.39  -10   6  -2   35.62    5.14  -10   6  -2
41.18    5.91  -10   6  -2   34.43    5.19   10  -6   2   40.89
5.17   11   5  -2    5.39    2.52   11   5  -2    9.70    3.58  -11
-5   2    2.52    2.02   10   5  -2   17.04    3.45   10   5  -2
19.43    4.26  -10  -5   2   20.86    3.51    9   5  -2   35.00
4.23    9   5  -2   35.49    5.14   -9  -5   2   40.50    4.25   -9
-5   2   42.00    5.68    8   5  -2   89.31    6.62    8   5  -2
88.12    5.20    8   5  -2   80.93    5.52   -8  -5   2   89.14
7.08   -8  -5   2   78.86    4.35   -8  -5   2   78.47    5.24    7
5  -2  148.10    6.91    7   5  -2  151.29    7.58    7   5  -2
154.44    8.58    7   5  -2  164.86    5.95   -7  -5   2  158.38
6.29   -7  -5   2  160.07    9.47   -7  -5   2  161.71    7.46    6
5  -2   95.92    5.37    6   5  -2   83.23    5.89    6   5  -2
92.74    4.49    6   5  -2   95.35    4.80   -6  -5   2   95.67
6.96   -6  -5   2   92.09    5.12   -6  -5   2   93.21    4.28    5
5  -2   43.33    2.90    5   5  -2   48.54    3.60    5   5  -2
53.15    3.31    5   5  -2   38.24    3.74   -5  -5   2   36.30
4.51   -5  -5   2   39.14    2.52   -5  -5   2   52.41    3.46    4
5  -2  117.84    5.32    4   5  -2  120.84    6.11    4   5  -2
122.34    5.80    4   5  -2  131.01    5.92    4   5  -2  122.71
5.06   -4  -5   2  123.12    4.65   -4  -5   2  128.36    5.68    3
5  -2  124.93    4.86    3   5  -2  122.97    5.29    3   5  -2
131.34    5.71    3   5  -2  130.97    5.79   -3  -5   2  118.22
4.39   -3  -5   2  113.19    6.62   -3  -5   2  119.48    5.34    2
5  -2  169.96    6.23    2   5  -2  158.13    6.12    2   5  -2
153.86    6.59    2   5  -2  171.10    7.18    2   5  -2  165.07
5.97   -2  -5   2  162.35    6.34   -2  -5   2  154.99    7.47   -2
-5   2  165.03    5.18    1   5  -2  181.48    6.46    1   5  -2
170.42    6.17    1   5  -2  169.83    6.88    1   5  -2  163.83
7.35   -1  -5   2  171.96    4.93   -1  -5   2  183.62    6.73   -1
-5   2  183.92    5.03   -1  -5   2  178.70    7.51    0   5  -2
121.37    5.10    0   5  -2  119.86    4.57    0  -5   2  128.71
5.54    0  -5   2  119.81    5.18   -1   5  -2   12.24    1.75   -1
5  -2   11.23    1.85   -1   5  -2   13.09    1.33   -1   5  -2
12.81    2.28    1  -5   2   11.38    1.79    1  -5   2   11.70
1.49    1  -5   2   10.24    1.75   -2   5  -2   63.40    2.70   -2
5  -2   63.52    3.87   -2   5  -2   71.18    4.78   -2   5  -2
72.60    4.03    2  -5   2   67.51    3.92    2  -5   2   75.87
3.16    2  -5   2   60.81    3.76   -3   5  -2   10.13    1.92   -3
5  -2   10.08    1.90   -3   5  -2   10.10    2.33   -3   5  -2
14.32    2.18    3  -5   2   14.59    1.13    3  -5   2   12.68
2.09    3  -5   2   11.36    1.95   -4   5  -2    5.28    1.54   -4
5  -2    3.43    1.50   -4   5  -2    6.12    1.56   -4   5  -2
7.06    2.21    4  -5   2    3.14    1.38    4  -5   2    1.45    1.21
-5   5  -2    1.59    1.32   -5   5  -2    4.09    2.01   -5   5  -2
5.37    1.83   -5   5  -2    2.82    1.35    5  -5   2    3.52    1.51
5  -5   2    3.49    1.57   -6   5  -2    0.22    1.14   -6   5  -2
1.71    1.25   -6   5  -2    0.64    1.29    6  -5   2    1.32    1.20
6  -5   2   -0.03    1.20   -7   5  -2    2.81    1.79   -7   5  -2
4.02    1.72   -7   5  -2    2.47    1.54    7  -5   2    5.04    1.78
-8   5  -2   14.70    3.10   -8   5  -2   12.02    2.81   -8   5  -2
14.43    3.22    8  -5   2   13.04    2.80   -9   5  -2    7.18
2.41   -9   5  -2    5.95    2.32   -9   5  -2    6.24    2.52    9
-5   2    2.87    1.85  -10   5  -2    4.03    2.41  -10   5  -2
-0.46    2.02  -10   5  -2    1.50    2.01   10  -5   2    1.12
1.82   11   4  -2    0.52    1.75   11   4  -2    1.26    2.27  -11
-4   2   -1.02    1.36   10   4  -2    3.74    1.96   10   4  -2
3.66    2.54  -10  -4   2    3.75    1.94  -10  -4   2    7.80    3.09
9   4  -2   24.82    3.28    9   4  -2   19.25    4.08    9   4  -2
19.74    3.22   -9  -4   2   17.19    2.29   -9  -4   2   24.25
3.44   -9  -4   2   17.84    3.92    8   4  -2   77.81    5.29    8
4  -2   79.91    6.34    8   4  -2   78.30    4.89   -8  -4   2
72.23    4.93   -8  -4   2   68.88    3.95   -8  -4   2   78.39
6.38    7   4  -2   78.17    4.58    7   4  -2   71.74    4.80    7
4  -2   78.72    3.55    7   4  -2   74.15    5.92   -7  -4   2
79.86    4.92   -7  -4   2   79.27    3.97   -7  -4   2   79.86
6.25    6   4  -2  105.40    5.19    6   4  -2  107.52    5.72    6
4  -2  121.53    4.99    6   4  -2  103.40    6.59   -6  -4   2
115.44    4.78   -6  -4   2  115.86    7.32   -6  -4   2  117.38
5.75    5   4  -2  118.07    5.01    5   4  -2  114.55    5.03    5
4  -2  114.11    5.52    5   4  -2  111.82    6.32   -5  -4   2
106.89    6.81   -5  -4   2  110.13    4.47   -5  -4   2  109.26
5.36    4   4  -2  121.44    5.20    4   4  -2  109.60    5.88    4
4  -2  126.71    5.19    4   4  -2  123.32    4.89    4   4  -2
117.05    5.43   -4  -4   2  122.65    4.51   -4  -4   2  126.70
6.91   -4  -4   2  123.97    5.44    3   4  -2  150.32    6.09    3
4  -2  147.53    6.15    3   4  -2  173.11    6.78    3   4  -2
151.64    5.43   -3  -4   2  147.25    7.30   -3  -4   2  149.60
5.07   -3  -4   2  155.86    6.07    2   4  -2  374.17   11.14    2
4  -2  372.08   12.25    2   4  -2  384.25   12.07    2   4  -2
379.24   11.87    2   4  -2  367.61   11.14   -2  -4   2  369.95
10.28   -2  -4   2  365.57   11.56    1   4  -2  254.25    8.86    1
4  -2  261.58    8.10    1   4  -2  279.48    8.44    1   4  -2
260.10    9.45   -1  -4   2  261.06    7.10   -1  -4   2  274.61
7.21   -1  -4   2  260.72    9.66   -1  -4   2  266.92    8.75    0
4  -2  443.79   13.36    0   4  -2  441.95   12.04    0   4  -2
447.82   13.53    0   4  -2  428.66   14.37    0  -4   2  432.67
13.29    0  -4   2  445.32   13.95   -1   4  -2  227.43    8.85   -1
4  -2  235.26    6.30   -1   4  -2  225.19    7.85   -1   4  -2
223.90    8.01    1  -4   2  222.57    8.00    1  -4   2  236.34
7.70    1  -4   2  221.38    7.93   -2   4  -2  194.87    6.47   -2
4  -2  174.71    6.86   -2   4  -2  173.80    6.86   -2   4  -2
164.93    7.52    2  -4   2  190.22    6.11    2  -4   2  182.98
6.91    2  -4   2  180.29    6.94   -3   4  -2   41.36    3.09   -3
4  -2   42.91    3.67   -3   4  -2   41.73    3.05   -3   4  -2
44.04    2.99   -3   4  -2   44.88    2.21    3  -4   2   41.30
3.05    3  -4   2   46.05    2.05    3  -4   2   41.73    2.94   -4
4  -2   20.58    1.22   -4   4  -2   20.72    2.80   -4   4  -2
21.05    2.53   -4   4  -2   17.13    2.33   -4   4  -2   12.55
2.02    4  -4   2   15.83    2.17    4  -4   2   18.52    1.90    4
-4   2   20.64    2.50   -5   4  -2    1.47    1.13   -5   4  -2
0.11    1.49   -5   4  -2    0.74    1.15   -5   4  -2    1.45    1.28
5  -4   2    0.16    1.19    5  -4   2    0.47    1.18    5  -4   2
0.31    0.95    5  -4   2    1.43    1.26   -6   4  -2    2.15    1.36
-6   4  -2    1.23    1.17   -6   4  -2    3.06    1.59    6  -4   2
2.83    1.55    6  -4   2    2.30    1.25    6  -4   2    2.21    1.54
-7   4  -2    0.95    1.21   -7   4  -2    0.60    1.22   -7   4  -2
3.12    1.73    7  -4   2    1.72    1.48    7  -4   2    4.29    1.57
-8   4  -2    6.11    1.98   -8   4  -2    9.01    2.47   -8   4  -2
12.13    2.69    8  -4   2    5.02    1.89    8  -4   2    7.73
2.40   -9   4  -2   10.57    2.93   -9   4  -2   19.07    3.31   -9
4  -2   17.81    3.37    9  -4   2   14.23    2.86    9  -4   2
14.14    3.34  -10   4  -2    6.34    2.54  -10   4  -2    5.11
2.60  -10   4  -2    0.31    1.53   10  -4   2    4.28    2.01  -11
4  -2   34.01    5.58  -11   4  -2   38.27    5.21  -11   4  -2
30.97    4.78   11  -4   2   29.00    4.49   11   3  -2    0.79
2.14   11   3  -2   -0.62    1.68  -11  -3   2    0.76    1.59   10
3  -2    1.04    2.02   10   3  -2    3.14    1.84   10   3  -2
1.90    1.68  -10  -3   2   -0.49    1.40    9   3  -2    0.66    1.32
9   3  -2   -0.01    1.35    9   3  -2    3.09    2.36   -9  -3   2
-1.30    1.15   -9  -3   2   -1.12    1.21   -9  -3   2    2.34
2.07   -9  -3   2    0.26    0.92    8   3  -2    3.31    1.59    8
3  -2    2.72    1.42    8   3  -2    4.18    2.23   -8  -3   2
3.32    1.56   -8  -3   2    3.03    1.49   -8  -3   2    2.88    1.18
-8  -3   2    2.45    1.90    7   3  -2    5.91    1.61    7   3  -2
8.75    2.73    7   3  -2    4.58    1.65   -7  -3   2    6.30    2.28
-7  -3   2    5.26    1.26   -7  -3   2    2.50    1.33    6   3  -2
35.32    3.20    6   3  -2   41.02    2.98    6   3  -2   39.80
2.65    6   3  -2   46.00    4.43   -6  -3   2   43.82    4.46   -6
-3   2   42.19    3.42   -6  -3   2   39.90    2.53    5   3  -2
68.00    3.06    5   3  -2   60.47    3.41    5   3  -2   67.05
3.93    5   3  -2   62.61    3.41    5   3  -2   60.86    4.58   -5
-3   2   64.28    3.09   -5  -3   2   60.45    4.76   -5  -3   2
71.65    3.95    4   3  -2   78.90    3.82    4   3  -2   75.84
3.98    4   3  -2   80.73    3.56    4   3  -2   75.24    4.75    4
3  -2   77.29    3.40   -4  -3   2   80.82    5.04   -4  -3   2
75.25    3.88   -4  -3   2   71.66    3.18    3   3  -2  173.77
7.21    3   3  -2  177.72    6.26    3   3  -2  180.37    6.27    3
3  -2  176.49    5.89    3   3  -2  179.31    6.51   -3  -3   2
175.52    5.58   -3  -3   2  167.16    7.59   -3  -3   2  177.19
6.48    2   3  -2   12.99    1.49    2   3  -2   15.33    1.82    2
3  -2   14.60    1.51    2   3  -2   13.79    1.49    2   3  -2
15.08    1.08   -2  -3   2   13.84    1.06   -2  -3   2   15.09
1.58   -2  -3   2   15.19    2.09    1   3  -2   42.42    2.55    1
3  -2   45.85    2.73    1   3  -2   48.09    2.03    1   3  -2
47.58    2.27   -1  -3   2   45.37    1.61   -1  -3   2   44.63
1.66   -1  -3   2   45.82    2.95    0   3  -2   71.87    2.93    0
3  -2   67.00    3.27    0   3  -2   63.89    3.47    0   3  -2
68.99    2.34    0  -3   2   73.60    3.29    0  -3   2   70.42
3.29   -1   3  -2   47.22    2.67   -1   3  -2   50.02    2.58   -1
3  -2   49.58    3.07    1  -3   2   50.33    2.75    1  -3   2
50.62    2.72    1  -3   2   47.82    2.40   -2   3  -2   11.44
1.50   -2   3  -2    9.18    1.67   -2   3  -2   14.18    1.15   -2
3  -2   10.35    1.40    2  -3   2   14.04    1.08    2  -3   2
14.46    1.67    2  -3   2   14.63    1.64   -3   3  -2   13.88
1.08   -3   3  -2   12.30    1.93   -3   3  -2    9.79    1.55   -3
3  -2   14.08    1.79   -3   3  -2   13.98    1.82   -3   3  -2
11.40    0.99    3  -3   2   10.59    1.64    3  -3   2   12.42
1.68    3  -3   2   14.18    1.81    3  -3   2   11.43    0.99   -4
3  -2    6.90    0.80   -4   3  -2    6.63    1.56   -4   3  -2
6.09    1.44   -4   3  -2    7.77    1.83   -4   3  -2    6.50    0.88
-4   3  -2    5.33    1.06   -4   3  -2    7.64    1.54    4  -3   2
7.81    1.62    4  -3   2    5.40    1.44    4  -3   2   10.05    1.68
4  -3   2    5.63    1.34   -5   3  -2    0.96    1.46   -5   3  -2
0.90    1.08   -5   3  -2    2.69    1.39   -5   3  -2    2.23    1.24
5  -3   2    4.65    1.44    5  -3   2    0.41    0.93    5  -3   2
0.67    1.14    5  -3   2    1.77    1.28   -6   3  -2   10.49    2.25
-6   3  -2   18.47    2.60   -6   3  -2   14.72    2.39    6  -3   2
14.22    2.50    6  -3   2   11.81    2.26    6  -3   2   11.44
2.12   -7   3  -2   -0.64    1.11   -7   3  -2    1.22    1.29    7
-3   2   -0.41    0.93    7  -3   2    1.52    1.45    7  -3   2
0.35    0.96   -8   3  -2    1.50    1.53   -8   3  -2    2.23    1.55
8  -3   2    2.12    1.78    8  -3   2    1.87    1.46    8  -3   2
2.12    1.50   -9   3  -2   -1.35    1.30   -9   3  -2    1.99    1.74
9  -3   2    0.40    1.80    9  -3   2   -1.48    1.19    9  -3   2
1.63    1.41  -10   3  -2    0.95    1.60  -10   3  -2   -0.32    1.62
10  -3   2   -1.38    1.27   10  -3   2    1.67    1.92  -11   3  -2
1.94    2.30  -11   3  -2   -1.16    1.72   11  -3   2   -1.56    1.82
11  -3   2   -1.20    1.46   11   2  -2    1.10    2.48   11   2  -2
2.02    1.96   11   2  -2    0.56    1.96  -11  -2   2   -0.67    1.60
10   2  -2    1.60    1.85   10   2  -2    1.55    1.63   10   2  -2
3.71    2.52  -10  -2   2    0.56    1.68  -10  -2   2   -0.40    1.35
9   2  -2    0.32    1.24    9   2  -2    0.39    1.87    9   2  -2
-0.29    1.16   -9  -2   2   -1.05    1.24   -9  -2   2   -2.30
1.10   -9  -2   2   -0.43    0.86    8   2  -2    2.91    1.42    8
2  -2    1.56    1.98    8   2  -2    1.64    1.32   -8  -2   2
0.09    1.24   -8  -2   2    1.07    1.76   -8  -2   2    0.21    1.15
-8  -2   2    0.71    0.84    7   2  -2    8.82    2.00    7   2  -2
10.09    2.04    7   2  -2   11.12    2.80   -7  -2   2   10.98
2.25   -7  -2   2   10.98    2.65   -7  -2   2   10.07    2.09   -7
-2   2    8.93    1.51    6   2  -2  124.54    5.92    6   2  -2
114.21    7.05    6   2  -2  124.71    5.64   -6  -2   2  120.57
6.76   -6  -2   2  126.83    5.68   -6  -2   2  116.54    4.73   -6
-2   2  113.25    5.72    5   2  -2  211.61    7.06    5   2  -2
211.44    7.59    5   2  -2  195.88    7.70    5   2  -2  206.66
9.25   -5  -2   2  201.07    8.93   -5  -2   2  207.00    6.75    4
2  -2  171.33    7.52    4   2  -2  166.34    5.89    4   2  -2
155.38    6.16    4   2  -2  163.07    5.83   -4  -2   2  157.96
5.36   -4  -2   2  165.59    6.32   -4  -2   2  153.09    7.16    3
2  -2  535.41   17.23    3   2  -2  539.89   14.98    3   2  -2
524.14   15.49    3   2  -2  541.95   15.32   -3  -2   2  535.42
14.37   -3  -2   2  534.72   15.61   -3  -2   2  530.50   17.25    2
2  -2  459.20   12.88    2   2  -2  458.97   13.41    2   2  -2
478.64   13.04    2   2  -2  489.89   14.76   -2  -2   2  450.79
14.81   -2  -2   2  448.11   12.30   -2  -2   2  471.74   13.49    1
2  -2  419.73   11.23    1   2  -2  412.94   11.99    1   2  -2
417.89   12.45   -1  -2   2  414.30   12.05   -1  -2   2  425.31
10.79   -1  -2   2  423.21   13.07   -1  -2   2  407.63   10.73    0
2  -2  298.09    9.05    0   2  -2  296.40    9.48    0   2  -2
309.39    8.71    0  -2   2  307.60    9.54   -1   2  -2  347.74
10.51   -1   2  -2  342.78   11.09   -1   2  -2  350.89   10.50   -1
2  -2  354.09   10.74    1  -2   2  367.00   10.79    1  -2   2
366.54   10.55    1  -2   2  353.01   10.61    1  -2   2  378.81
10.62   -2   2  -2  321.80    9.46   -2   2  -2  303.97   10.15   -2
2  -2  298.33    9.59   -2   2  -2  303.30    9.78    2  -2   2
319.63    9.87    2  -2   2  315.53    9.76    2  -2   2  310.75
9.67    2  -2   2  325.93    9.49   -3   2  -2  921.87   27.25   -3
2  -2  972.72   26.91   -3   2  -2  948.19   26.45   -3   2  -2
905.79   26.24   -3   2  -2  965.79   27.62   -3   2  -2 1000.00
26.83    3  -2   2  957.87   26.50    3  -2   2  976.23   26.42    3
-2   2  928.08   27.25    3  -2   2  954.00   27.29    3  -2   2
965.73   26.87   -4   2  -2  253.65    9.03   -4   2  -2  254.95
9.33   -4   2  -2  268.91    8.41   -4   2  -2  278.35    8.36   -4
2  -2  255.31    9.27    4  -2   2  266.11    9.08    4  -2   2
240.69    9.08    4  -2   2  252.46    9.28    4  -2   2  273.14
9.16   -5   2  -2  161.64    6.62   -5   2  -2  148.38    6.80   -5
2  -2  163.41    5.90   -5   2  -2  164.58    5.97   -5   2  -2
140.86    6.49    5  -2   2  151.19    6.50    5  -2   2  159.08
6.65    5  -2   2  155.65    6.86    5  -2   2  153.59    6.82   -6
2  -2   88.24    4.59   -6   2  -2   82.78    4.78   -6   2  -2
86.01    5.14    6  -2   2   82.09    4.97    6  -2   2   80.89
4.67    6  -2   2   79.64    4.98   -7   2  -2   30.01    3.55   -7
2  -2   24.81    3.14    7  -2   2   23.81    3.32    7  -2   2
26.94    3.12    7  -2   2   27.64    3.41   -8   2  -2    9.61
2.33   -8   2  -2   13.08    2.73    8  -2   2    7.71    2.39    8
-2   2    3.12    1.77    8  -2   2    7.98    2.05   -9   2  -2
3.27    1.73   -9   2  -2    2.11    1.75    9  -2   2    5.43    2.25
9  -2   2    3.40    1.88    9  -2   2    4.19    1.83  -10   2  -2
-1.17    1.20  -10   2  -2   -0.42    1.62   10  -2   2   -1.66
1.64   10  -2   2    1.21    1.70   10  -2   2    0.23    1.52  -11
2  -2   -0.87    1.77  -11   2  -2    0.61    1.83   11  -2   2
1.11    1.70   11  -2   2    0.11    1.87   11  -2   2    0.67    2.23
11   1  -2    0.31    2.38   11   1  -2    1.32    1.83   11   1  -2
2.06    2.06  -11  -1   2    0.68    1.76  -11  -1   2    0.24    1.58
10   1  -2    0.77    1.58   10   1  -2   -0.42    1.90   10   1  -2
0.86    1.50  -10  -1   2   -0.46    1.45  -10  -1   2   -0.24    1.19
9   1  -2    3.50    1.69    9   1  -2    0.80    1.26    9   1  -2
2.42    2.25   -9  -1   2    0.64    1.40   -9  -1   2    3.20    1.30
-9  -1   2    1.89    1.58    8   1  -2    1.68    1.95    8   1  -2
-0.89    0.99    8   1  -2   -0.50    1.13   -8  -1   2   -0.45
1.19   -8  -1   2    1.59    1.31   -8  -1   2    1.13    0.91   -8
-1   2    1.53    1.52    7   1  -2   10.18    2.89    7   1  -2
7.92    1.85    7   1  -2    6.32    1.78   -7  -1   2    5.19    1.73
-7  -1   2    5.65    1.76   -7  -1   2    8.75    1.47   -7  -1   2
9.07    2.22    6   1  -2    8.31    1.73    6   1  -2    5.80    1.04
6   1  -2    1.29    1.76    6   1  -2    3.58    1.27   -6  -1   2
3.71    1.02   -6  -1   2    4.50    1.85   -6  -1   2    7.00    1.70
-6  -1   2    6.37    1.56    5   1  -2    0.74    0.86    5   1  -2
-1.57    1.09    5   1  -2    2.03    0.90    5   1  -2    0.95
0.98   -5  -1   2    2.36    0.96   -5  -1   2    2.32    1.02   -5
-1   2    1.95    0.74   -5  -1   2    0.99    1.23    4   1  -2
15.57    1.59    4   1  -2   10.16    1.48    4   1  -2   12.33
1.47    4   1  -2   15.32    2.49   -4  -1   2   13.37    1.52   -4
-1   2   11.87    1.61   -4  -1   2   12.61    1.20   -4  -1   2
10.97    1.86    3   1  -2   71.83    3.26    3   1  -2   67.56
3.13    3   1  -2   70.27    4.29    3   1  -2   74.12    3.06   -3
-1   2   74.50    2.79   -3  -1   2   70.43    3.03   -3  -1   2
71.67    3.38   -3  -1   2   70.54    3.77    2   1  -2    1.57
0.76    2   1  -2    0.94    0.61    2   1  -2    1.66    0.49    2
1  -2    1.50    1.13   -2  -1   2    1.30    0.50   -2  -1   2
1.98    0.51   -2  -1   2    1.60    0.84   -2  -1   2    1.95    0.72
1   1  -2    1.59    0.52    1   1  -2    1.61    0.47   -1  -1   2
1.41    0.30   -1  -1   2    1.75    0.64   -1  -1   2    1.38    0.35
0   1  -2    0.64    0.42    0   1  -2    0.96    0.43    0  -1   2
1.17    0.49   -1   1  -2    8.21    0.89   -1   1  -2    5.07    0.75
-1   1  -2    7.95    0.99    1  -1   2    7.39    0.87    1  -1   2
5.84    0.73    1  -1   2    5.36    0.76   -2   1  -2   35.76    2.11
-2   1  -2   33.02    1.76   -2   1  -2   31.59    1.75   -2   1  -2
28.25    1.91    2  -1   2   32.58    1.91    2  -1   2   33.04
1.95    2  -1   2   31.64    1.74    2  -1   2   34.52    2.02   -3
1  -2    0.37    0.61   -3   1  -2    0.59    0.71   -3   1  -2
0.21    0.58   -3   1  -2    0.96    0.57    3  -1   2    0.23    0.57
3  -1   2    0.84    0.71    3  -1   2    1.37    0.74    3  -1   2
1.23    0.57    3  -1   2    1.10    0.64   -4   1  -2   17.15    1.57
-4   1  -2   14.29    1.74   -4   1  -2   16.36    1.22   -4   1  -2
16.21    1.71   -4   1  -2   10.31    1.62    4  -1   2   13.63
1.70    4  -1   2   13.00    1.84    4  -1   2   15.61    1.86    4
-1   2   13.99    1.71   -5   1  -2   37.41    2.76   -5   1  -2
39.33    2.70   -5   1  -2   41.42    2.67   -5   1  -2   37.53
2.96   -5   1  -2   39.56    2.29    5  -1   2   28.97    2.79    5
-1   2   40.87    3.24    5  -1   2   41.65    2.88   -6   1  -2
1.30    1.14   -6   1  -2    2.06    1.39   -6   1  -2    2.51    1.35
6  -1   2    2.48    1.50    6  -1   2    2.36    1.16    6  -1   2
0.40    1.02   -7   1  -2    1.17    1.32   -7   1  -2   -0.34    1.09
7  -1   2   -1.11    0.88    7  -1   2   -0.39    0.94    7  -1   2
-0.51    1.28   -8   1  -2    1.89    1.39   -8   1  -2   -1.16
0.95    8  -1   2   -0.21    1.11    8  -1   2   -1.24    0.92    8
-1   2    0.77    1.65   -9   1  -2    4.16    1.95   -9   1  -2
6.56    2.16    9  -1   2    7.09    2.55    9  -1   2    5.21    2.00
9  -1   2    4.59    1.83  -10   1  -2    0.84    1.22  -10   1  -2
1.75    1.85   10  -1   2    2.44    1.63   10  -1   2    2.14    1.93
10  -1   2    0.47    1.65  -11   1  -2   -1.65    1.31  -11   1  -2
-1.23    1.70   11  -1   2    0.16    1.49   11  -1   2    0.19
1.76   11  -1   2    1.35    2.09  -12   1  -2   -0.52    1.58   12
-1   2   -0.38    2.09   11   0  -2   58.21    6.86   11   0  -2
54.67    5.50   11   0  -2   58.68    5.88  -11   0   2   53.56
5.64  -11   0   2   52.74    5.63   10   0  -2   24.63    4.66   10
0  -2   24.16    3.62   10   0  -2   31.96    4.38  -10   0   2
42.13    4.80  -10   0   2   35.88    4.42    9   0  -2   41.17
4.38    9   0  -2   46.39    5.63    9   0  -2   43.74    4.34   -9
0   2   48.22    4.61   -9   0   2   51.19    4.68   -9   0   2
37.82    3.08    8   0  -2   71.14    4.77    8   0  -2   69.21
6.18    8   0  -2   68.12    4.78   -8   0   2   71.64    3.84   -8
0   2   61.53    4.64   -8   0   2   66.39    4.82    7   0  -2
7.30    1.88    7   0  -2    9.58    2.01    7   0  -2    7.36    2.53
-7   0   2    7.80    1.46   -7   0   2    8.35    1.99   -7   0   2
7.75    1.93   -7   0   2    7.97    1.99    6   0  -2    0.21    1.04
6   0  -2    0.70    0.61    6   0  -2    0.73    1.77    6   0  -2
2.38    1.14   -6   0   2    1.59    1.15   -6   0   2    0.36    1.17
-6   0   2    1.07    0.84   -6   0   2    2.48    1.29    5   0  -2
17.18    2.00    5   0  -2   14.13    1.84    5   0  -2   19.95
3.00    5   0  -2   17.31    2.10   -5   0   2   20.82    2.21   -5
0   2   17.91    1.59   -5   0   2   16.34    2.06   -5   0   2
21.90    2.27    4   0  -2  186.39    8.02    4   0  -2  174.81
6.29    4   0  -2  161.76    5.75    4   0  -2  167.79    6.44   -4
0   2  168.39    5.62   -4   0   2  173.90    6.72   -4   0   2
179.57    6.54   -4   0   2  180.47    6.63    3   0  -2   30.35
2.88    3   0  -2   27.74    1.83    3   0  -2   24.45    1.81    3
0  -2   23.86    1.79   -3   0   2   27.71    2.01   -3   0   2
30.23    1.97   -3   0   2   28.81    1.58   -3   0   2   31.00
2.11    2   0  -2  150.03    4.86    2   0  -2  147.36    4.87    2
0  -2  153.51    5.02   -2   0   2  149.97    4.55   -2   0   2
158.38    5.05   -2   0   2  143.17    5.37   -2   0   2  151.41
5.17    1   0  -2  314.72    8.38    1   0  -2  296.96    8.18    1
0  -2  310.15    9.35   -1   0   2  304.78    8.06   -1   0   2
292.19    7.96   -1   0   2  302.85    9.31   -1   0   2  301.61
8.63    0   0  -2  221.18    7.04    0   0   2  226.56    7.06   -1
0  -2  680.78   19.50    1   0   2  682.88   18.08    1   0   2
680.11   18.84    1   0   2  692.59   19.56   -2   0  -2  281.53
9.02    2   0   2  290.98    8.47    2   0   2  291.86    9.02    2
0   2  291.50    8.89   -3   0  -2  363.48   10.86   -3   0  -2
369.12   10.46   -3   0  -2  371.75   11.52    3   0   2  377.66
11.51    3   0   2  367.60   10.84    3   0   2  365.17   11.77    3
0   2  367.82   10.95   -4   0  -2  683.85   19.54   -4   0  -2
680.20   20.73    4   0   2  695.36   21.18    4   0   2  687.74
19.69    4   0   2  715.07   20.62   -5   0  -2  284.19   10.24   -5
0  -2  282.69    9.69    5   0   2  282.99    9.79    5   0   2
299.08   10.84    5   0   2  298.16   10.37   -6   0  -2  240.06
9.44   -6   0  -2  226.94    8.73    6   0   2  245.82    9.47    6
0   2  245.65    8.95    6   0   2  221.41    9.69   -7   0  -2
323.42   12.41   -7   0  -2  327.28   11.62   -7   0  -2  320.89
12.21    7   0   2  308.01   12.07    7   0   2  312.39   11.55    7
0   2  317.43   12.80   -8   0  -2   52.97    4.67   -8   0  -2
62.55    4.36    8   0   2   52.29    4.97    8   0   2   49.76
4.18    8   0   2   50.77    4.52   -9   0  -2   25.26    3.66   -9
0  -2   24.02    3.36    9   0   2   28.12    4.24    9   0   2
22.65    3.57    9   0   2   22.62    3.33  -10   0  -2   16.00
3.45  -10   0  -2   13.69    2.82   10   0   2   18.70    3.34   10
0   2   18.12    3.51   10   0   2   16.30    3.66  -11   0  -2
10.06    2.91  -11   0  -2    8.75    2.98   11   0   2    8.61
2.79   11   0   2    8.75    2.56   11   0   2   16.25    3.92  -12
0  -2    4.88    2.41  -12   0  -2    5.70    2.94   12   0   2
2.44    2.08   12   0   2    2.91    2.85   12   0   2    4.22    2.50
11  -1  -2    1.06    1.91   11  -1  -2    0.13    2.05  -11   1   2
2.75    2.05  -11   1   2    3.48    2.26   10  -1  -2    0.42    1.54
10  -1  -2    4.79    2.16   10  -1  -2    0.53    1.93  -10   1   2
-0.80    1.49  -10   1   2    1.73    1.71    9  -1  -2   -0.25
1.13    9  -1  -2    2.76    1.91    9  -1  -2   -1.17    1.89   -9
1   2   -0.10    0.97   -9   1   2    0.78    1.43   -9   1   2
0.89    1.57    8  -1  -2    0.66    1.43    8  -1  -2    2.50    1.43
8  -1  -2    1.32    1.93   -8   1   2    2.19    1.11   -8   1   2
3.50    1.71   -8   1   2    0.13    1.27    7  -1  -2   15.82    2.37
7  -1  -2   11.34    2.41    7  -1  -2   13.95    3.35   -7   1   2
10.20    2.27   -7   1   2   14.59    1.80   -7   1   2   11.46
2.28    6  -1  -2    6.83    1.53    6  -1  -2    5.59    1.74    6
-1  -2    5.60    2.38   -6   1   2    8.90    1.59   -6   1   2
8.48    1.38   -6   1   2   10.80    2.11   -6   1   2   10.26    2.05
5  -1  -2    1.06    0.99    5  -1  -2    1.74    1.59    5  -1  -2
0.57    0.70    5  -1  -2    0.98    0.78   -5   1   2    0.86    0.64
-5   1   2    0.77    1.00   -5   1   2    0.79    0.80   -5   1   2
-0.83    0.67    4  -1  -2    2.15    1.48    4  -1  -2    1.12
0.78    4  -1  -2    1.53    0.84    4  -1  -2    1.67    0.81    4
-1  -2    0.99    0.69   -4   1   2    1.36    0.72   -4   1   2
2.36    1.00   -4   1   2    2.05    0.99   -4   1   2    0.37    0.53
3  -1  -2   15.13    1.40    3  -1  -2   15.44    1.38    3  -1  -2
14.51    2.10    3  -1  -2   12.24    1.41   -3   1   2   16.49
1.39   -3   1   2   15.36    1.64   -3   1   2   12.83    1.54   -3
1   2   14.82    1.19    2  -1  -2    7.60    0.85    2  -1  -2
11.28    1.66    2  -1  -2    9.78    1.07    2  -1  -2    9.31
1.09    2  -1  -2    7.30    1.04   -2   1   2    8.93    1.12   -2
1   2   10.81    1.05   -2   1   2    8.24    0.86   -2   1   2
10.74    1.27    1  -1  -2   57.06    2.15    1  -1  -2   52.90
2.36    1  -1  -2   56.71    1.94    1  -1  -2   52.30    2.41   -1
1   2   55.84    2.41   -1   1   2   57.06    2.08   -1   1   2
56.02    1.99   -1   1   2   56.01    2.50    0  -1  -2    7.97
0.49    0  -1  -2    7.42    0.86    0  -1  -2    7.98    0.53    0
-1  -2    7.63    0.71    0   1   2    6.86    0.84    0   1   2
9.57    0.84   -1  -1  -2   50.91    2.45   -1  -1  -2   53.73    2.48
-1  -1  -2   54.05    1.94    1   1   2   54.45    2.29    1   1   2
54.78    1.88    1   1   2   54.89    2.47    1   1   2   57.64
2.53   -2  -1  -2   48.05    2.50    2   1   2   43.51    2.45    2
1   2   46.84    2.33    2   1   2   47.16    2.09   -3  -1  -2
18.95    1.77    3   1   2   13.30    1.48    3   1   2   18.81
1.82    3   1   2   18.57    1.51   -4  -1  -2  123.84    4.72   -4
-1  -2  120.14    5.41    4   1   2  124.45    4.98    4   1   2
128.22    5.29    4   1   2  127.87    5.66   -5  -1  -2   60.80
3.32   -5  -1  -2   58.46    3.77    5   1   2   55.48    3.32    5
1   2   60.94    3.61    5   1   2   64.59    4.10   -6  -1  -2
64.68    4.60   -6  -1  -2   69.52    3.93    6   1   2   70.41
4.29    6   1   2   77.27    4.90    6   1   2   70.53    4.09   -7
-1  -2   63.76    4.91   -7  -1  -2   57.77    3.79    7   1   2
49.35    3.77    7   1   2   54.87    4.08    7   1   2   65.79
4.84   -8  -1  -2   51.18    3.87   -8  -1  -2   59.28    5.21    8
1   2   60.40    4.51    8   1   2   48.09    4.85    8   1   2
51.59    4.27   -9  -1  -2   23.54    3.61   -9  -1  -2   27.65
3.39    9   1   2   19.91    3.76    9   1   2   25.54    3.68    9
1   2   24.06    3.35  -10  -1  -2   16.34    3.11  -10  -1  -2
14.61    3.08   10   1   2   23.96    4.35   10   1   2   17.16
3.37   10   1   2   13.99    3.03  -11  -1  -2    9.36    2.79  -11
-1  -2    7.18    2.38   11   1   2    8.11    2.98   11   1   2
8.41    2.69   11   1   2    2.60    1.97  -12  -1  -2    2.75    2.43
-12  -1  -2    2.06    2.06   12   1   2    0.23    2.29   12   1   2
3.41    2.51   12   1   2    2.31    2.14   11  -2  -2   58.10    5.73
11  -2  -2   74.43    7.52  -11   2   2   52.95    5.87  -11   2   2
61.76    6.44   10  -2  -2   58.80    6.51   10  -2  -2   79.60
5.81  -10   2   2   72.13    6.18  -10   2   2   66.00    6.11    9
-2  -2   75.94    6.78    9  -2  -2   64.66    4.97   -9   2   2
60.04    5.49   -9   2   2   56.92    5.22   -9   2   2   66.36
4.09    8  -2  -2   74.03    5.01    8  -2  -2   77.28    6.54   -8
2   2   67.67    5.21   -8   2   2   87.77    4.39   -8   2   2
77.17    5.33    7  -2  -2  120.89    7.62    7  -2  -2  118.93
6.14   -7   2   2  123.88    6.63   -7   2   2  131.60    6.89   -7
2   2  133.35    5.40    6  -2  -2   87.57    5.94    6  -2  -2
82.67    4.58   -6   2   2   82.14    4.99   -6   2   2   86.53
3.97   -6   2   2   84.29    4.93    5  -2  -2   64.71    2.47    5
-2  -2   62.58    3.58    5  -2  -2   58.18    4.66   -5   2   2
61.69    3.08   -5   2   2   68.42    4.01   -5   2   2   57.70
3.90   -5   2   2   69.69    3.17    4  -2  -2   26.24    2.27    4
-2  -2   22.57    1.65    4  -2  -2   16.50    2.54    4  -2  -2
19.05    1.83   -4   2   2   21.28    2.19   -4   2   2   21.62
2.37   -4   2   2   22.74    1.70   -4   2   2   22.72    1.57    3
-2  -2   10.03    1.96    3  -2  -2   12.16    1.33    3  -2  -2
12.09    1.28    3  -2  -2   12.56    1.36    3  -2  -2   11.90
1.49   -3   2   2   11.55    1.08   -3   2   2   16.80    1.89   -3
2   2   13.04    1.22   -3   2   2   10.65    1.47   -3   2   2
12.27    1.55    2  -2  -2    1.67    1.01    2  -2  -2    0.94
0.67    2  -2  -2    1.84    0.60    2  -2  -2    1.24    0.67    2
-2  -2    2.02    0.63   -2   2   2    0.62    0.62   -2   2   2
1.58    0.58   -2   2   2    2.91    0.97   -2   2   2    1.66    0.53
-2   2   2    2.30    0.78    1  -2  -2    0.24    0.45    1  -2  -2
0.05    0.49    1  -2  -2   -0.17    0.44    1  -2  -2   -0.37    0.37
-1   2   2   -0.40    0.36   -1   2   2    0.50    0.44   -1   2   2
0.03    0.50   -1   2   2    0.25    0.65   -1   2   2    2.06    0.59
0  -2  -2  554.30   15.62    0  -2  -2  544.73   15.63    0  -2  -2
521.65   15.55    0  -2  -2  529.75   13.92    0   2   2  527.64
13.73    0   2   2  526.06   13.75    0   2   2  535.18   15.57    0
2   2  530.70   15.49    0   2   2  544.74   14.14    0   2   2
524.38   15.54    0   2   2  530.83   15.58   -1  -2  -2    9.82
0.64   -1  -2  -2   10.16    1.19   -1  -2  -2    7.73    0.58    1
2   2    8.56    0.73    1   2   2    8.99    1.10    1   2   2
10.02    0.93    1   2   2    9.96    1.12   -2  -2  -2   64.62
3.28    2   2   2   73.59    2.79    2   2   2   65.90    3.08    2
2   2   72.14    2.67    2   2   2   65.52    3.24   -3  -2  -2
188.32    7.08    3   2   2  187.89    6.18    3   2   2  169.46
6.45   -4  -2  -2  333.92   11.48   -4  -2  -2  322.60    9.67    4
2   2  309.59   11.15    4   2   2  310.73   10.69    4   2   2
333.70   10.24   -5  -2  -2  149.86    4.26   -5  -2  -2  144.92
6.91   -5  -2  -2  151.84    5.69    5   2   2  154.81    5.06    5
2   2  147.55    6.43    5   2   2  157.83    6.19    5   2   2
145.88    6.91   -6  -2  -2   93.06    4.52   -6  -2  -2   95.41
5.78    6   2   2   92.95    4.87    6   2   2   97.02    5.16    6
2   2   85.53    5.44    6   2   2  100.65    3.61   -7  -2  -2
114.20    7.01   -7  -2  -2  119.88    5.60    7   2   2  103.43
6.51    7   2   2  110.31    5.84    7   2   2  120.17    6.15   -8
-2  -2  162.87    7.24   -8  -2  -2  145.17    8.56    8   2   2
157.40    8.65    8   2   2  154.83    7.69    8   2   2  151.91
7.41   -9  -2  -2   37.47    4.92   -9  -2  -2   27.14    3.32    9
2   2   43.13    4.96    9   2   2   27.16    3.59    9   2   2
30.48    3.85  -10  -2  -2   22.96    3.38  -10  -2  -2   28.82
4.00   10   2   2   29.60    4.59   10   2   2   31.74    4.29   10
2   2   23.97    3.63  -11  -2  -2   17.22    3.20  -11  -2  -2
22.18    3.99   11   2   2   19.12    3.64   11   2   2   17.59
3.73   11   2   2   32.21    5.14  -12  -2  -2    8.71    3.00  -12
-2  -2    6.42    2.58   12   2   2   -0.89    2.01   12   2   2
4.67    2.45   12   2   2    7.93    2.85   11  -3  -2   14.38    3.87
11  -3  -2    5.61    2.46  -11   3   2    5.38    2.42  -11   3   2
7.83    2.95   10  -3  -2   28.87    4.96   10  -3  -2   32.97    4.31
-10   3   2   24.40    4.27  -10   3   2   29.33    4.44    9  -3  -2
31.62    4.79    9  -3  -2   39.45    4.23   -9   3   2   33.41
4.32   -9   3   2   27.18    4.17   -9   3   2   38.50    3.31    8
-3  -2   31.32    3.56    8  -3  -2   29.92    4.38   -8   3   2
28.97    3.74   -8   3   2   32.76    4.10   -8   3   2   26.59
2.65    7  -3  -2   19.77    3.62    7  -3  -2   21.08    2.76   -7
3   2   29.83    3.67   -7   3   2   25.60    2.40   -7   3   2
17.01    2.85    6  -3  -2   40.94    4.33    6  -3  -2   42.39
3.24   -6   3   2   41.64    3.90   -6   3   2   42.39    3.70   -6
3   2   43.52    2.77    5  -3  -2   42.85    3.05    5  -3  -2
42.45    4.11   -5   3   2   48.46    3.70   -5   3   2   47.66
2.70   -5   3   2   44.09    3.35    4  -3  -2   33.52    2.56    4
-3  -2   33.10    3.34    4  -3  -2   30.15    1.72    4  -3  -2
27.95    1.86    4  -3  -2   34.06    2.26    4  -3  -2   28.11
2.33   -4   3   2   29.23    2.88   -4   3   2   28.96    2.60   -4
3   2   32.53    2.78   -4   3   2   31.60    1.69   -4   3   2
30.88    2.05    3  -3  -2    1.86    0.86    3  -3  -2    1.63
0.72    3  -3  -2    1.34    0.64    3  -3  -2    1.68    0.79    3
-3  -2    3.01    1.43   -3   3   2    1.44    0.84   -3   3   2
2.85    0.60   -3   3   2    1.56    0.81   -3   3   2    1.62    1.02
-3   3   2    0.24    0.60    2  -3  -2    2.05    0.70    2  -3  -2
3.84    1.15    2  -3  -2    1.55    0.68    2  -3  -2    2.92    0.63
2  -3  -2    2.38    0.60    2  -3  -2    3.02    0.91   -2   3   2
2.89    0.89   -2   3   2    3.34    0.65   -2   3   2    3.32    0.79
-2   3   2    3.99    0.92   -2   3   2    3.90    0.81   -2   3   2
3.96    1.18    1  -3  -2    3.84    0.78    1  -3  -2    3.97    0.92
1  -3  -2    2.35    0.72    1  -3  -2    3.08    0.70    1  -3  -2
0.61    0.67    1  -3  -2    2.09    0.64   -1   3   2    4.31    0.79
-1   3   2    2.04    0.79   -1   3   2    2.78    0.66   -1   3   2
2.30    0.99   -1   3   2    2.70    0.70    0  -3  -2  166.25    5.24
0  -3  -2  170.12    5.96    0   3   2  157.02    5.08    0   3   2
175.01    6.10    0   3   2  179.96    5.39    0   3   2  177.46
6.34   -1  -3  -2   20.72    1.66   -1  -3  -2   21.16    1.83   -1
-3  -2   20.20    1.24   -1  -3  -2   21.65    1.28    1   3   2
17.85    1.67    1   3   2   20.21    1.06    1   3   2   21.87
1.61    1   3   2   20.33    1.35    1   3   2   20.44    1.04    1
3   2   17.68    1.59   -2  -3  -2    2.04    0.99   -2  -3  -2
0.81    0.41    2   3   2    1.85    0.66    2   3   2    2.36    0.78
2   3   2    2.93    0.91   -3  -3  -2    8.17    0.72   -3  -3  -2
5.63    1.43    3   3   2    8.40    1.31    3   3   2    7.43    1.16
3   3   2    7.02    1.34   -4  -3  -2   42.04    3.30   -4  -3  -2
41.48    2.18   -4  -3  -2   40.68    1.73    4   3   2   38.19
2.49    4   3   2   42.01    2.76    4   3   2   39.67    2.97   -5
-3  -2  162.66    7.65   -5  -3  -2  164.99    5.94   -5  -3  -2
162.69    4.98    5   3   2  167.64    6.57    5   3   2  156.82
7.22    5   3   2  159.25    6.78   -6  -3  -2  237.24    8.30   -6
-3  -2  227.50   10.37   -6  -3  -2  242.04    7.02    6   3   2
241.39   10.06    6   3   2  222.36    9.20    6   3   2  226.47
8.78   -7  -3  -2  203.47    7.86   -7  -3  -2  205.16   10.12    7
3   2  214.48    8.87    7   3   2  189.99    8.28    7   3   2
191.82    9.41   -8  -3  -2  173.55    9.33   -8  -3  -2  138.93
6.69    8   3   2  144.73    7.47    8   3   2  160.02    8.65    8
3   2  153.55    7.51   -9  -3  -2   72.74    4.73   -9  -3  -2
63.75    6.38    9   3   2   58.25    5.76    9   3   2   60.90
4.98    9   3   2   65.37    4.97  -10  -3  -2   69.44    4.99   10
3   2   64.15    5.55   10   3   2   75.14    5.69   10   3   2
75.84    6.92  -11  -3  -2   63.63    5.93  -11  -3  -2   72.06
5.44   11   3   2   69.87    7.00   11   3   2   68.83    6.23   11
3   2   68.16    6.09  -12  -3  -2   31.22    4.84   12   3   2
31.66    4.90   12   3   2   23.70    4.89   12   3   2   20.87
4.04   10  -4  -2   37.96    5.47   10  -4  -2   34.67    4.51  -10
4   2   52.06    5.57  -10   4   2   44.01    5.50    9  -4  -2
58.53    5.16    9  -4  -2   61.48    6.16   -9   4   2   63.61
4.21   -9   4   2   55.84    5.71   -9   4   2   74.37    6.05    8
-4  -2   67.91    6.05    8  -4  -2   67.54    4.81   -8   4   2
51.11    5.16   -8   4   2   62.03    3.91   -8   4   2   59.50
5.19    7  -4  -2   30.30    3.33    7  -4  -2   36.65    4.43   -7
4   2   40.54    4.28   -7   4   2   30.59    2.73   -7   4   2
37.63    3.92    6  -4  -2   97.01    5.30    6  -4  -2   99.18
6.47   -6   4   2   93.16    5.92   -6   4   2   90.01    5.52   -6
4   2  112.06    4.73    5  -4  -2   98.49    5.01    5  -4  -2
99.09    6.10   -5   4   2  100.63    5.76   -5   4   2  105.05
5.54   -5   4   2  103.02    4.51    4  -4  -2   25.79    2.35    4
-4  -2   29.55    1.75   -4   4   2   30.07    2.51   -4   4   2
22.32    2.81   -4   4   2   31.39    2.83   -4   4   2   32.74
2.25   -4   4   2   24.78    2.60    3  -4  -2   16.10    1.17    3
-4  -2   12.10    1.93    3  -4  -2   14.01    1.38    3  -4  -2
15.13    1.73    3  -4  -2   12.51    1.00   -3   4   2   12.58
2.06   -3   4   2   13.12    1.64   -3   4   2   11.62    1.38   -3
4   2   10.06    1.65   -3   4   2   11.65    1.81   -3   4   2
13.28    1.03    2  -4  -2   32.93    1.80    2  -4  -2   35.58
2.63    2  -4  -2   30.78    2.13    2  -4  -2   30.28    1.93    2
-4  -2   34.71    1.82   -2   4   2   33.64    2.20   -2   4   2
35.10    2.58   -2   4   2   35.88    2.34   -2   4   2   35.92
2.83   -2   4   2   31.23    2.00    1  -4  -2    1.69    0.77    1
-4  -2    2.17    0.74    1  -4  -2    3.69    0.83    1  -4  -2
2.90    0.81    1  -4  -2    3.89    0.98   -1   4   2    3.18    0.83
-1   4   2    4.14    1.10   -1   4   2    2.00    0.70   -1   4   2
3.72    0.91   -1   4   2    1.30    0.93    0  -4  -2   34.61    2.22
0  -4  -2   27.87    1.99    0  -4  -2   32.07    1.84    0   4   2
31.38    2.40    0   4   2   32.05    1.95    0   4   2   29.26
1.78    0   4   2   34.12    2.32    0   4   2   32.08    2.10   -1
-4  -2   66.57    3.53   -1  -4  -2   64.81    2.72    1   4   2
70.37    3.01    1   4   2   64.80    2.59    1   4   2   65.91
3.50    1   4   2   67.15    3.25   -2  -4  -2    2.98    1.17   -2
-4  -2    5.44    0.81    2   4   2    6.76    1.08    2   4   2
7.05    1.22    2   4   2    6.80    0.65    2   4   2    5.55    1.20
-3  -4  -2    0.31    0.45   -3  -4  -2    0.32    1.00    3   4   2
-0.22    0.56    3   4   2   -0.18    0.60    3   4   2    0.58
0.80   -4  -4  -2   21.59    1.44   -4  -4  -2   25.00    1.69   -4
-4  -2   24.77    2.86    4   4   2   19.51    2.17    4   4   2
20.27    2.30    4   4   2   22.94    2.13   -5  -4  -2   12.94
1.52   -5  -4  -2   14.78    1.30   -5  -4  -2   14.84    2.76    5
4   2   13.42    1.88    5   4   2   10.96    1.84    5   4   2
11.17    2.06   -6  -4  -2   25.86    2.25   -6  -4  -2   19.73
3.42   -6  -4  -2   21.39    1.65    6   4   2   19.17    2.45    6
4   2   18.41    2.84    6   4   2   19.07    2.55   -7  -4  -2
17.32    3.57   -7  -4  -2   12.52    1.46   -7  -4  -2   14.19
2.02    7   4   2   12.51    2.71    7   4   2   14.26    2.37    7
4   2   13.87    2.44   -8  -4  -2    0.13    1.03   -8  -4  -2
-2.88    1.71    8   4   2    2.65    1.47    8   4   2    1.49
1.69    8   4   2    1.64    1.36   -9  -4  -2   21.00    4.45   -9
-4  -2   29.27    3.21    9   4   2   27.27    4.15    9   4   2
25.74    3.59    9   4   2   25.96    3.63  -10  -4  -2   11.61
3.84  -10  -4  -2   15.01    2.78   10   4   2   11.96    3.19   10
4   2    6.53    2.36   10   4   2   10.26    2.68   11   4   2
2.32    2.00   11   4   2    3.55    2.06   11   4   2   -0.48    1.79
-12  -4  -2   14.55    3.56   12   4   2   13.59    3.42   12   4   2
13.62    3.52   12   4   2    9.09    3.33   10  -5  -2   36.17
4.64  -10   5   2   38.57    5.40  -10   5   2   45.07    5.48  -10
5   2   51.93    5.29    9  -5  -2   58.78    5.16   -9   5   2
46.15    4.78   -9   5   2   61.62    5.74   -9   5   2   62.79
6.14    8  -5  -2   47.00    4.42   -8   5   2   58.91    5.27   -8
5   2   56.67    4.74   -8   5   2   44.91    5.08   -8   5   2
61.76    3.98    7  -5  -2   76.40    6.01    7  -5  -2   82.70
5.23   -7   5   2   88.57    4.63   -7   5   2   81.35    5.99   -7
5   2   90.21    5.46   -7   5   2  103.33    6.20    6  -5  -2
122.39    6.25   -6   5   2  132.70    5.67   -6   5   2  129.46
7.34   -6   5   2  115.88    6.61   -6   5   2  127.83    6.32    5
-5  -2  186.20    8.61    5  -5  -2  167.90    7.35   -5   5   2
178.50    7.86   -5   5   2  165.33    8.29   -5   5   2  168.12
7.28   -5   5   2  174.69    6.66    4  -5  -2  110.03    5.27    4
-5  -2  105.39    5.93   -4   5   2  107.37    5.22   -4   5   2
107.62    4.65   -4   5   2  118.27    6.21   -4   5   2  106.25
5.47    3  -5  -2   50.03    3.19    3  -5  -2   54.38    3.78   -3
5   2   49.34    3.83   -3   5   2   53.81    3.26   -3   5   2
51.62    2.93   -3   5   2   54.48    3.45   -3   5   2   49.38
3.59    2  -5  -2   54.38    2.76    2  -5  -2   62.84    2.92    2
-5  -2   58.59    3.35    2  -5  -2   64.89    3.59    2  -5  -2
58.90    3.29   -2   5   2   62.28    4.06   -2   5   2   62.12
3.07   -2   5   2   62.38    3.43   -2   5   2   67.63    3.85   -2
5   2   67.21    3.45    1  -5  -2  118.10    4.75    1  -5  -2
108.72    4.54    1  -5  -2  107.78    4.67    1  -5  -2  111.01
4.27    1  -5  -2  116.92    4.83   -1   5   2  119.85    4.64   -1
5   2  117.03    5.58   -1   5   2  114.15    4.39   -1   5   2
109.07    5.22   -1   5   2  121.89    4.80    0  -5  -2   97.49
3.86    0  -5  -2  103.76    3.95    0  -5  -2   99.57    4.59    0
-5  -2   98.92    4.27    0   5   2   95.47    3.83    0   5   2
105.11    4.28    0   5   2   89.65    4.79    0   5   2   98.16
4.74    0   5   2  104.99    4.35    0   5   2   93.00    3.80   -1
-5  -2    3.42    1.26   -1  -5  -2    1.20    0.65   -1  -5  -2
3.59    0.98    1   5   2    2.19    0.90    1   5   2    1.19    0.77
1   5   2    2.34    0.75    1   5   2    0.38    0.73   -2  -5  -2
1.44    0.63   -2  -5  -2    1.47    1.19    2   5   2    2.23    0.81
2   5   2    1.22    0.87    2   5   2    2.44    0.98    2   5   2
1.10    0.57   -3  -5  -2   23.65    2.93   -3  -5  -2   27.15    1.77
3   5   2   28.48    2.50    3   5   2   28.91    1.43    3   5   2
29.27    1.38    3   5   2   26.91    2.53    3   5   2   29.30
2.22   -4  -5  -2   54.91    2.67   -4  -5  -2   55.70    4.37   -4
-5  -2   54.24    2.67    4   5   2   53.59    3.25    4   5   2
54.48    3.65    4   5   2   60.80    3.69   -5  -5  -2   64.17
5.36   -5  -5  -2   76.43    3.48   -5  -5  -2   62.65    3.06    5
5   2   64.70    4.11    5   5   2   65.82    3.92    5   5   2
64.78    4.43   -6  -5  -2   44.36    2.99   -6  -5  -2   54.36
2.77   -6  -5  -2   54.13    5.27    6   5   2   47.29    3.50    6
5   2   40.93    3.91    6   5   2   48.26    3.65   -7  -5  -2
138.59    5.38   -7  -5  -2  145.94    8.78   -7  -5  -2  139.99
5.99    7   5   2  125.58    6.62    7   5   2  138.43    7.54    7
5   2  131.10    6.80   -8  -5  -2   94.23    7.88   -8  -5  -2
103.17    4.54    8   5   2   88.96    6.41    8   5   2  105.09
6.19    8   5   2   91.25    5.71   -9  -5  -2  147.47    9.86    9
5   2  133.22    8.33    9   5   2  126.10    7.20    9   5   2
141.27    7.72  -10  -5  -2  141.22   10.06   10   5   2  153.23
8.38   10   5   2  133.43    8.85   11   5   2   81.16    7.68   11
5   2  100.12    7.05   11   5   2   87.66    6.63   12   5   2
49.80    5.73   12   5   2   56.94    7.01   12   5   2   61.63
6.37   10  -6  -2   12.15    3.29  -10   6   2   12.29    3.34  -10
6   2   14.05    3.83  -10   6   2   10.42    3.17    9  -6  -2
3.38    2.20   -9   6   2    1.11    1.81   -9   6   2    4.44    2.40
-9   6   2    1.29    1.85    8  -6  -2   12.62    2.82   -8   6   2
11.02    2.91   -8   6   2   13.52    2.89   -8   6   2   12.21
3.22    7  -6  -2   11.22    2.47   -7   6   2   11.54    2.84   -7
6   2   14.73    2.30   -7   6   2   16.37    2.90   -7   6   2
23.76    3.90    6  -6  -2    0.49    1.27   -6   6   2    1.07
1.28   -6   6   2    3.57    1.78   -6   6   2    1.01    1.17   -6
6   2   -2.77    0.94    5  -6  -2   21.57    2.80   -5   6   2
19.10    3.23   -5   6   2   27.99    2.58   -5   6   2   18.22
2.79   -5   6   2   21.60    2.76    4  -6  -2   26.61    2.86   -4
6   2   34.46    3.10   -4   6   2   27.34    3.58   -4   6   2
29.63    3.09   -4   6   2   28.74    2.52    3  -6  -2    1.29
1.55    3  -6  -2    1.60    0.85    3  -6  -2    1.81    1.09   -3
6   2    2.42    1.27   -3   6   2    1.91    1.10   -3   6   2
2.65    1.26   -3   6   2   -0.37    1.20   -3   6   2    0.01    0.98
2  -6  -2   18.81    1.84    2  -6  -2   26.21    2.41    2  -6  -2
19.47    2.20    2  -6  -2   20.07    1.69    2  -6  -2   18.30
2.13   -2   6   2   18.49    2.11   -2   6   2   23.50    2.64   -2
6   2   23.50    3.04   -2   6   2   17.54    1.89   -2   6   2
20.99    2.27    1  -6  -2   10.93    1.56    1  -6  -2    4.59
1.25    1  -6  -2    8.25    1.55    1  -6  -2    8.43    1.27    1
-6  -2    6.32    1.35   -1   6   2    5.82    1.32   -1   6   2
8.97    1.42   -1   6   2    6.82    1.60   -1   6   2    5.60    1.63
-1   6   2    8.17    1.54    0  -6  -2   -0.96    0.58    0  -6  -2
0.99    0.80    0  -6  -2   -0.41    0.92    0  -6  -2    0.17    0.64
0   6   2    0.33    0.65    0   6   2    0.41    0.84    0   6   2
-0.91    0.69    0   6   2    0.43    0.83    0   6   2   -0.05
0.67    0   6   2    1.17    0.99   -1  -6  -2    0.94    0.71   -1
-6  -2   -0.38    1.12   -1  -6  -2    2.14    0.79   -1  -6  -2
0.30    0.73    1   6   2    1.22    0.80    1   6   2    2.21    0.88
1   6   2    1.32    0.87    1   6   2    0.04    0.80   -2  -6  -2
-0.62    0.47   -2  -6  -2    1.83    1.28   -2  -6  -2   -0.01
0.58    2   6   2    0.41    0.76    2   6   2    0.07    0.67    2
6   2    0.00    0.75    2   6   2   -0.49    0.67   -3  -6  -2
2.93    1.68   -3  -6  -2    0.30    0.62   -3  -6  -2    2.16    0.72
-3  -6  -2    1.41    0.73    3   6   2    2.14    0.74    3   6   2
1.15    0.92    3   6   2    1.79    1.02    3   6   2    1.59    1.06
-4  -6  -2    5.75    1.10   -4  -6  -2    3.48    1.99   -4  -6  -2
4.79    1.07    4   6   2    4.03    1.40    4   6   2    3.99    1.27
4   6   2    6.21    1.66    4   6   2    5.82    0.72   -5  -6  -2
8.80    1.36   -5  -6  -2    4.78    2.43    5   6   2    9.63    2.04
5   6   2    9.32    1.95    5   6   2    4.67    1.52   -6  -6  -2
0.15    0.73   -6  -6  -2    3.02    2.31    6   6   2    0.94    1.10
6   6   2   -0.56    1.28    6   6   2    1.23    1.09   -7  -6  -2
5.32    1.28   -7  -6  -2   10.25    3.27    7   6   2    8.97    2.46
7   6   2    7.66    1.97    7   6   2    5.37    1.71   -8  -6  -2
1.41    2.35   -8  -6  -2    0.23    0.82    8   6   2   -1.09    0.96
8   6   2    0.03    1.17    8   6   2    1.09    1.57   -9  -6  -2
-3.40    2.29   -9  -6  -2   -0.01    0.90    9   6   2   -2.04
1.24    9   6   2    1.14    1.46    9   6   2   -0.11    1.26   10
6   2   -0.53    1.22   10   6   2   -1.53    1.62   10   6   2
-1.89    1.19   11   6   2    1.38    2.01   11   6   2    3.64
2.14   11   6   2    2.50    2.40    9  -7  -2   59.37    5.59   -9
7   2   55.03    6.42   -9   7   2   47.64    5.72   -9   7   2
53.73    5.51    8  -7  -2   85.57    6.19   -8   7   2   95.23
6.46   -8   7   2   90.47    7.16   -8   7   2   91.80    6.73    7
-7  -2   83.31    5.75   -7   7   2   96.36    6.57   -7   7   2
88.45    6.82   -7   7   2   94.84    5.26   -7   7   2   92.81
6.06    6  -7  -2   49.09    4.35   -6   7   2   47.95    3.76   -6
7   2   55.94    4.91   -6   7   2   48.34    4.31   -6   7   2
45.05    5.06    5  -7  -2  151.92    7.47   -5   7   2  160.80
7.57   -5   7   2  160.53    6.65   -5   7   2  162.83    7.88   -5
7   2  141.71    8.29    4  -7  -2  293.97   10.93   -4   7   2
277.64    9.91   -4   7   2  283.81   12.32   -4   7   2  294.12
11.16   -4   7   2  288.85   10.88    3  -7  -2  265.38    9.90    3
-7  -2  267.11   10.00   -3   7   2  260.45    9.84   -3   7   2
261.25    9.95   -3   7   2  262.74    9.07   -3   7   2  245.19
11.06    2  -7  -2  147.61    6.57    2  -7  -2  152.36    5.28    2
-7  -2  143.78    6.36   -2   7   2  148.01    5.96   -2   7   2
141.94    7.48   -2   7   2  148.35    6.52   -2   7   2  146.91
6.44   -2   7   2  149.27    7.20    1  -7  -2  191.54    6.73    1
-7  -2  201.45    7.99    1  -7  -2  206.68    7.54   -1   7   2
208.50    7.92   -1   7   2  201.56    7.52   -1   7   2  194.83
8.55   -1   7   2  198.07    7.15   -1   7   2  186.00    8.67    0
-7  -2  176.78    6.45    0  -7  -2  155.12    5.84    0  -7  -2
165.66    7.34    0  -7  -2  157.50    6.21    0   7   2  171.67
7.64    0   7   2  149.18    7.41    0   7   2  170.74    6.77    0
7   2  160.70    6.33    0   7   2  160.21    6.21    0   7   2
151.58    5.99   -1  -7  -2  106.70    4.80   -1  -7  -2  105.96
5.99   -1  -7  -2  111.15    4.55   -1  -7  -2  110.68    4.54    1
7   2  109.32    5.14    1   7   2  108.12    5.77    1   7   2
109.10    4.58    1   7   2  102.08    4.75   -2  -7  -2   25.27
2.09   -2  -7  -2   22.39    1.84   -2  -7  -2   25.83    3.36   -2
-7  -2   25.12    2.36    2   7   2   18.85    2.63    2   7   2
25.99    2.43    2   7   2   23.21    2.45    2   7   2   25.02
2.04   -3  -7  -2    9.43    2.61   -3  -7  -2    6.20    1.29    3
7   2    8.16    2.00    3   7   2    9.30    1.30    3   7   2
6.34    1.56    3   7   2    9.27    1.80   -4  -7  -2    1.45    0.87
-4  -7  -2    2.64    2.12   -4  -7  -2    0.98    0.84    4   7   2
0.90    0.99    4   7   2    1.11    1.13    4   7   2    1.28    0.71
4   7   2    3.05    1.45   -5  -7  -2    0.21    0.81   -5  -7  -2
0.18    1.93    5   7   2    0.11    1.04    5   7   2    0.43    1.10
5   7   2    1.97    1.22   -6  -7  -2    3.39    1.10   -6  -7  -2
2.68    2.31    6   7   2    4.91    1.65    6   7   2    4.57    1.79
6   7   2    3.24    1.50   -7  -7  -2    8.46    1.58   -7  -7  -2
4.96    2.86    7   7   2    6.85    1.95    7   7   2    7.98    2.02
7   7   2    6.26    2.24   -8  -7  -2   33.96    2.85   -8  -7  -2
38.13    5.90    8   7   2   39.75    4.62    8   7   2   31.47
3.87    8   7   2   36.69    3.98   -9  -7  -2   21.58    2.54    9
7   2   29.01    4.08    9   7   2   27.24    4.34    9   7   2
27.42    3.80   10   7   2   66.53    6.56   10   7   2   55.29
5.62   10   7   2   52.55    5.29   11   7   2   53.13    5.69   11
7   2   61.69    6.06   11   7   2   49.07    6.38    8  -8  -2
-0.75    1.74   -8   8   2    2.33    2.02   -8   8   2    1.23
2.04   -8   8   2   -1.20    1.51    7  -8  -2    1.90    1.71   -7
8   2    3.63    2.09   -7   8   2    0.57    1.81   -7   8   2
5.64    2.26    6  -8  -2    3.87    1.86   -6   8   2    0.12    1.73
-6   8   2    0.09    1.43   -6   8   2    0.80    1.30   -6   8   2
0.62    1.51    5  -8  -2    1.69    1.52   -5   8   2    1.74    1.73
-5   8   2    2.12    1.62   -5   8   2    1.98    1.35   -5   8   2
1.63    1.78    4  -8  -2   -0.18    1.22   -4   8   2   -0.60    1.01
-4   8   2    0.21    1.38   -4   8   2    0.57    1.16   -4   8   2
1.21    1.29    3  -8  -2    0.14    1.25    3  -8  -2    2.22    1.46
-3   8   2    0.79    1.50   -3   8   2    2.90    1.36   -3   8   2
0.68    1.26   -3   8   2    1.56    1.35    2  -8  -2    7.13    1.87
2  -8  -2    8.77    1.88    2  -8  -2    9.80    1.37   -2   8   2
4.35    1.81   -2   8   2    8.12    2.00   -2   8   2   10.11    1.86
1  -8  -2   -1.56    0.77    1  -8  -2    1.67    1.10   -1   8   2
0.01    1.08   -1   8   2   -1.20    0.94   -1   8   2    0.28    1.01
-1   8   2    0.26    1.07   -1   8   2   -1.14    1.09    0  -8  -2
21.36    2.01    0  -8  -2   23.27    2.38    0  -8  -2   25.06
3.21    0   8   2   18.61    2.87    0   8   2   18.04    2.93    0
8   2   24.54    2.71    0   8   2   24.60    2.42    0   8   2
25.64    2.40   -1  -8  -2   18.76    3.17   -1  -8  -2   19.87
2.02    1   8   2   18.74    2.85    1   8   2   17.82    2.40    1
8   2   18.70    2.07   -2  -8  -2   25.52    3.74   -2  -8  -2
23.57    2.17    2   8   2   23.74    3.07    2   8   2   25.98
2.49    2   8   2   31.23    2.95    2   8   2   23.57    2.21   -3
-8  -2    7.32    1.44   -3  -8  -2    4.54    2.44    3   8   2
5.55    1.68    3   8   2   10.27    2.26    3   8   2    7.88    1.41
3   8   2    7.73    1.82   -4  -8  -2    3.77    2.42   -4  -8  -2
2.74    1.10    4   8   2    6.59    1.20    4   8   2    4.76    1.68
4   8   2    5.15    1.62    4   8   2    4.74    1.60   -5  -8  -2
0.64    2.33   -5  -8  -2   -0.25    0.74   -5  -8  -2   -0.76    0.74
5   8   2    1.67    1.35    5   8   2    0.15    1.08    5   8   2
0.36    1.15   -6  -8  -2    4.18    1.23   -6  -8  -2    0.58    2.43
6   8   2    3.97    1.80    6   8   2    4.36    1.71    6   8   2
4.69    1.71   -7  -8  -2    2.61    1.18   -7  -8  -2   -0.94    2.32
7   8   2    3.73    1.64    7   8   2    1.02    1.47    7   8   2
1.08    1.27   -8  -8  -2    3.22    1.32    8   8   2    0.66    1.61
8   8   2    3.81    1.84    8   8   2    3.34    1.73    9   8   2
5.48    2.21    9   8   2    0.83    1.84    9   8   2    4.78    2.09
10   8   2    0.16    1.65   10   8   2    0.66    1.73   10   8   2
0.64    1.51   11   8   2   12.29    3.66   11   8   2    7.93    2.81
11   8   2    6.62    2.75   -8   9   2   17.95    4.08    7  -9  -2
38.40    4.69   -7   9   2   30.86    5.14   -7   9   2   38.52
4.96   -7   9   2   33.23    4.44    6  -9  -2   59.77    5.38   -6
9   2   62.51    5.66   -6   9   2   54.58    6.14   -6   9   2
66.51    5.48    5  -9  -2   23.02    3.49   -5   9   2   25.57
3.80   -5   9   2   26.29    4.38   -5   9   2   24.77    3.58    4
-9  -2  112.82    6.66   -4   9   2  113.78    7.69   -4   9   2
117.99    6.65   -4   9   2  110.62    5.78   -4   9   2  113.00
6.60    3  -9  -2  132.43    7.12    3  -9  -2  136.71    7.03   -3
9   2  141.01    7.25   -3   9   2  135.42    6.32   -3   9   2
147.42    7.26   -3   9   2  145.07    8.33    2  -9  -2  149.94
6.92   -2   9   2  132.73    7.78   -2   9   2  143.79    7.09   -2
9   2  136.78    6.25    1  -9  -2  212.43    8.56    1  -9  -2
225.00    7.38   -1   9   2  219.54    9.14   -1   9   2  221.36
10.32   -1   9   2  213.87    8.25    0  -9  -2  148.83    5.70    0
9   2  151.86    7.83    0   9   2  135.02    6.02    0   9   2
140.44    7.71    0   9   2  140.79    6.88   -1  -9  -2   81.13
4.06   -1  -9  -2   92.58    6.18    1   9   2   79.45    5.45    1
9   2   85.99    4.40    1   9   2   82.91    5.02   -2  -9  -2
76.47    6.08   -2  -9  -2   90.29    4.40    2   9   2   88.11
5.20    2   9   2   99.20    4.60    2   9   2   89.71    5.75   -3
-9  -2   84.37    6.64   -3  -9  -2   72.16    4.01    3   9   2
80.14    5.44    3   9   2   79.57    4.93    3   9   2   87.32
4.14   -4  -9  -2   42.08    5.28   -4  -9  -2   48.95    3.15    4
9   2   44.98    2.78    4   9   2   45.67    4.32    4   9   2
51.40    4.18   -5  -9  -2   50.87    3.44   -5  -9  -2   49.65
6.05    5   9   2   56.71    4.30    5   9   2   60.72    4.42    5
9   2   51.71    4.66   -6  -9  -2   13.99    2.14   -6  -9  -2
15.11    4.15   -6  -9  -2   16.40    2.26    6   9   2   16.08
2.99    6   9   2   19.99    3.30    6   9   2   13.82    2.68   -7
-9  -2    0.86    1.12    7   9   2    3.99    1.80    7   9   2
2.78    1.92    7   9   2    1.21    1.41    8   9   2    1.38    1.68
8   9   2   -0.82    1.16    8   9   2    1.12    1.89    9   9   2
0.61    1.54    9   9   2   -0.35    1.49    9   9   2    1.10    1.97
10   9   2    1.44    2.08   10   9   2   -0.48    1.86   10   9   2
1.31    1.87   -7  10   2    4.62    2.52   -7  10   2    1.99    2.43
-6  10   2    1.43    2.00   -6  10   2    4.57    2.51    5 -10  -2
7.16    2.48   -5  10   2    5.38    2.28   -5  10   2    0.47    1.69
-5  10   2   -0.10    1.81    4 -10  -2   19.75    3.48   -4  10   2
20.86    3.40   -4  10   2   18.72    3.39   -4  10   2   17.74
3.71    3 -10  -2   26.43    3.54   -3  10   2   27.84    3.70   -3
10   2   25.17    3.51   -3  10   2   28.06    3.10   -3  10   2
28.75    4.33   -2  10   2   18.30    3.15   -2  10   2   24.60
2.79   -2  10   2   19.86    3.62   -1  10   2   50.88    4.34   -1
10   2   43.08    3.53   -1  10   2   43.65    4.88    0 -10  -2
40.06    2.73    0  10   2   33.14    4.16    0  10   2   37.50
3.79    0  10   2   35.67    3.14   -1 -10  -2   55.42    3.34    1
10   2   55.01    4.97    1  10   2   45.50    4.78    1  10   2
57.25    4.34    1  10   2   50.80    3.50   -2 -10  -2   62.88
6.03   -2 -10  -2   63.79    3.77    2  10   2   70.23    5.28    2
10   2   67.25    3.95    2  10   2   63.76    4.64   -3 -10  -2
108.22    5.12   -3 -10  -2   97.48    7.56    3  10   2  107.17
6.69    3  10   2  104.48    6.07    3  10   2  113.06    5.11   -4
-10  -2   34.64    5.41   -4 -10  -2   33.75    2.94    4  10   2
27.45    3.78    4  10   2   34.77    3.82    4  10   2   36.95
2.69   -5 -10  -2   12.77    4.02   -5 -10  -2   15.29    2.18    5
10   2   18.32    3.22    5  10   2   16.65    2.87    6  10   2
16.25    3.08    6  10   2   16.06    3.10    7  10   2   11.29
2.71    7  10   2    7.08    2.63    7  10   2   13.01    2.89    8
10   2    3.03    2.12    8  10   2    5.81    2.24    8  10   2
4.68    2.45    9  10   2    2.46    2.07    9  10   2    1.92    2.08
9  10   2    5.35    2.59   -6  11   2    0.41    2.15   -6  11   2
0.05    2.06   -5  11   2   11.68    3.37   -4  11   2    6.47    2.59
-3  11   2   31.22    4.14   -3  11   2   32.59    4.84   -2  11   2
53.77    5.74   -2  11   2   61.07    5.15   -1  11   2   35.48
4.72   -1  11   2   24.58    3.53    0  11   2   71.27    5.16    0
11   2   58.81    5.49    0  11   2   55.48    3.96   -1 -11  -2
72.97    3.97    1  11   2   79.97    5.37    1  11   2   69.25
5.88    1  11   2   66.78    4.30   -2 -11  -2   91.10    4.61    2
11   2   95.67    5.00    2  11   2   80.08    5.65    2  11   2
92.92    6.47   -3 -11  -2   45.65    5.91   -3 -11  -2   42.06
3.36    3  11   2   56.06    3.61    3  11   2   39.91    4.19    3
11   2   40.84    4.71   -4 -11  -2   21.35    4.83    4  11   2
23.43    3.55    4  11   2   25.25    3.86    4  11   2   25.14
2.51    5  11   2   18.65    3.42    5  11   2   24.17    3.63    6
11   2   36.54    4.41    6  11   2   37.65    4.56    7  11   2
10.55    2.78    7  11   2    7.00    2.46    8  11   2    8.63
2.93    8  11   2    5.89    2.44    9  11   2    3.94    2.46    9
11   2    2.02    2.03   -4  12   2    3.95    2.57   -3  12   2
6.17    2.69   -2  12   2   21.33    4.14   -1  12   2   51.18    5.74
0  12   2   52.52    5.55    0  12   2   49.36    4.87    1  12   2
52.51    4.99    1  12   2   58.04    5.62   -2 -12  -2   62.13
3.89    2  12   2   65.00    5.52    2  12   2   66.64    6.19    3
12   2   61.19    5.89    3  12   2   64.42    5.51    4  12   2
60.36    5.47    4  12   2   60.12    5.78    5  12   2   65.75
5.74    5  12   2   59.93    5.85    6  12   2   62.91    5.81    6
12   2   74.18    6.47    7  12   2   52.04    5.47    7  12   2
52.11    5.64    8  12   2   22.20    4.23    8  12   2   24.79
4.45   -3  13   2    1.81    2.46   -2  13   2    0.71    2.04   -1
13   2    4.57    2.31    0  13   2    3.92    2.41    1  13   2
7.60    2.63    2  13   2   13.89    3.47    3  13   2    3.13    2.12
3  13   2    3.56    2.32    4  13   2    4.33    2.41    4  13   2
5.17    2.38    5  13   2    3.00    2.23    5  13   2    4.22    2.35
6  13   2    1.57    1.98    6  13   2    1.33    2.09    0  14   2
10.99    3.48    1  14   2   16.89    3.91    2  14   2   25.63
4.62    3  14   2   42.39    5.61    4  14   2   34.91    5.10    4
13  -3   15.80    3.93    3  13  -3   25.54    4.61    2  13  -3
54.95    6.05    1  13  -3   31.88    5.04   -1 -13   3   31.60
4.42    0  13  -3    5.22    2.75    0 -13   3    1.58    1.93   -1
13  -3    6.52    2.98   -1  13  -3   14.20    3.38    1 -13   3
8.74    2.87   -2  13  -3    1.77    2.20   -2  13  -3    5.76    2.70
2 -13   3    2.17    2.23    6  12  -3   37.97    5.34    5  12  -3
19.96    4.04    4  12  -3   21.20    4.02    4  12  -3   21.01
4.61   -4 -12   3   26.82    3.93    3  12  -3   18.94    4.23    3
12  -3   25.81    4.38   -3 -12   3   19.33    3.42    2  12  -3
12.30    3.35    2  12  -3   20.05    4.26   -2 -12   3   15.67
3.16    1  12  -3   15.73    3.36    1  12  -3   12.76    3.70   -1
-12   3   14.95    3.09    0  12  -3   14.20    3.85    0  12  -3
12.49    3.30    0 -12   3   11.42    2.87   -1  12  -3    0.31
2.11   -1  12  -3    1.95    2.16    1 -12   3    2.84    1.79   -2
12  -3   16.28    3.52   -2  12  -3   16.92    3.84    2 -12   3
13.81    3.13   -3  12  -3    0.59    2.23   -3  12  -3    3.16
2.20    3 -12   3    5.59    2.47   -4  12  -3    3.55    2.22   -4
12  -3    1.38    2.33    4 -12   3    2.96    2.11    8  11  -3
9.11    3.17    7  11  -3   14.53    3.71    6  11  -3   59.64    6.06
-6 -11   3   59.88    5.41   -5 -11   3  100.41    6.58    4  11  -3
80.72    6.71    4  11  -3   97.28    7.29   -4 -11   3   87.10
6.06    3  11  -3   80.79    7.11    3  11  -3   76.62    6.48   -3
-11   3   89.12    5.84   -3 -11   3   73.78    6.67    2  11  -3
63.21    5.80    2  11  -3   69.19    6.68   -2 -11   3   63.54
5.20    1  11  -3  104.19    7.92    1  11  -3   96.18    6.72    1
11  -3  109.29    6.24   -1 -11   3  115.91    6.72    0  11  -3
85.42    6.38    0  11  -3   89.79    7.77    0  11  -3   91.57
5.67    0 -11   3   84.64    5.83   -1  11  -3   68.14    4.80   -1
11  -3   47.65    5.12   -1  11  -3   56.01    6.38    1 -11   3
55.37    5.06   -2  11  -3   86.32    6.54   -2  11  -3   92.78
6.55   -2  11  -3   86.50    6.28   -2  11  -3   72.52    7.29    2
-11   3   90.23    6.18   -3  11  -3   41.15    4.94   -3  11  -3
31.06    4.68   -3  11  -3   36.61    4.74    3 -11   3   36.84
4.60   -4  11  -3   11.96    3.44   -4  11  -3   12.16    3.18   -4
11  -3   28.27    4.59    4 -11   3   14.92    3.29   -5  11  -3
1.75    2.45   -5  11  -3    3.42    2.13   -5  11  -3    6.46    2.81
5 -11   3   -0.71    1.65    5 -11   3    1.40    2.23    8  10  -3
0.82    1.80   -8 -10   3    0.11    1.67    7  10  -3    0.90    1.78
-7 -10   3    0.71    1.45    6  10  -3    0.29    1.56   -6 -10   3
0.96    1.62    5  10  -3    1.64    1.77   -5 -10   3    0.19    1.38
4  10  -3    6.14    2.41    4  10  -3    3.87    1.81    4  10  -3
6.81    2.77   -4 -10   3    7.28    2.79   -4 -10   3    7.63    2.24
3  10  -3    7.21    2.44    3  10  -3    7.62    2.19    3  10  -3
9.72    2.99   -3 -10   3   12.16    2.66   -3 -10   3    8.79    2.71
2  10  -3    8.31    2.99    2  10  -3    5.98    2.20    2  10  -3
12.46    2.48   -2 -10   3    9.62    2.64   -2 -10   3    5.48
1.97    1  10  -3   -0.66    1.75    1  10  -3    0.78    1.27    1
10  -3   -0.57    1.34   -1 -10   3    0.73    1.24    0  10  -3
0.49    1.57    0  10  -3    0.21    1.55    0  10  -3    1.57    2.12
0 -10   3    0.36    1.21   -1  10  -3    0.30    1.39   -1  10  -3
0.05    1.50   -1  10  -3    2.83    2.38   -1  10  -3    2.82    1.63
1 -10   3    2.72    1.70   -2  10  -3    1.25    2.11   -2  10  -3
0.83    1.46   -2  10  -3   -1.31    1.26    2 -10   3   -0.06    1.21
-3  10  -3   -0.54    1.41   -3  10  -3    1.24    1.77   -3  10  -3
-0.01    1.97   -3  10  -3   -0.74    1.56    3 -10   3   -0.03
1.30   -4  10  -3   -1.52    1.97   -4  10  -3   -1.01    1.64   -4
10  -3   -0.44    1.53   -4  10  -3    0.54    1.66    4 -10   3
-0.89    1.46    4 -10   3    2.74    1.97   -5  10  -3    0.94
1.80   -5  10  -3   -0.22    1.59   -5  10  -3   -1.67    1.52    5
-10   3    0.66    1.64    5 -10   3    0.95    1.72   -6  10  -3
-1.72    1.56   -6  10  -3    0.95    2.00   -6  10  -3    1.17
2.09    6 -10   3    0.17    1.96    6 -10   3    1.32    1.94   -7
10  -3    6.66    2.79   -7  10  -3   -1.45    1.87   -7  10  -3
3.84    2.29    7 -10   3    1.62    2.25    7 -10   3   -0.61    1.82
9   9  -3    4.46    2.41   -9  -9   3    0.74    1.87    8   9  -3
2.57    1.98   -8  -9   3    3.44    2.01    7   9  -3   24.53    4.02
-7  -9   3   35.74    4.21    6   9  -3   25.80    3.14    6   9  -3
24.24    3.87   -6  -9   3   25.30    2.38   -6  -9   3   28.88
3.71    5   9  -3  103.68    6.72    5   9  -3  100.16    5.77   -5
-9   3  108.51    4.60   -5  -9   3  101.97    6.14   -5  -9   3
99.30    7.73    4   9  -3   62.44    5.54    4   9  -3   50.25
4.83    4   9  -3   57.13    4.24   -4  -9   3   54.81    4.50   -4
-9   3   55.82    5.83    3   9  -3   43.87    3.90    3   9  -3
52.44    4.81    3   9  -3   43.14    4.78   -3  -9   3   50.07
5.15   -3  -9   3   48.44    4.25    2   9  -3  153.57    8.15    2
9  -3  173.54    9.38    2   9  -3  170.84    7.46   -2  -9   3
168.11    8.81   -2  -9   3  166.19    7.86    1   9  -3  147.84
6.76    1   9  -3  154.28    8.83    1   9  -3  133.51    7.40   -1
-9   3  148.31    7.69   -1  -9   3  146.80    7.24    0   9  -3
173.17   10.04    0   9  -3  192.04    9.12    0   9  -3  201.32
8.09    0   9  -3  210.93    8.90    0  -9   3  196.52    8.77   -1
9  -3  203.72    9.54   -1   9  -3  221.90    9.42   -1   9  -3
212.05    8.28   -1   9  -3  195.77   10.78    1  -9   3  197.74
9.13   -2   9  -3   71.89    6.60   -2   9  -3   75.65    5.54   -2
9  -3   82.35    5.53    2  -9   3   71.69    5.15   -3   9  -3
105.60    6.75   -3   9  -3  104.13    6.86   -3   9  -3   91.69
7.32   -3   9  -3  129.07    7.14    3  -9   3  124.46    6.96    3
-9   3  128.75    7.39   -4   9  -3   80.97    5.83   -4   9  -3
76.00    6.96   -4   9  -3   85.21    6.05   -4   9  -3   82.04
6.05    4  -9   3   70.39    5.92    4  -9   3   79.52    5.83   -5
9  -3   52.72    5.45   -5   9  -3   51.87    5.32   -5   9  -3
55.71    5.44    5  -9   3   53.08    5.35    5  -9   3   54.16
5.26   -6   9  -3   47.30    5.24   -6   9  -3   47.79    5.29   -6
9  -3   47.19    5.45    6  -9   3   44.96    5.15    6  -9   3
43.41    5.07   -7   9  -3   26.05    4.54   -7   9  -3   20.80
4.05   -7   9  -3   19.31    3.78    7  -9   3   21.92    3.98    7
-9   3   22.28    4.07   -8   9  -3    2.52    2.32   -8   9  -3
8.74    3.01   10   8  -3    3.15    2.27   10   8  -3    2.06    2.58
-10  -8   3    0.39    1.70    9   8  -3    0.78    2.05    9   8  -3
-0.16    1.45   -9  -8   3    1.33    1.52    8   8  -3    0.84
1.91    8   8  -3    3.01    1.77   -8  -8   3    1.46    1.55    7
8  -3   -1.09    1.29    7   8  -3    0.63    1.86    7   8  -3
0.78    1.55   -7  -8   3    1.32    1.52   -7  -8   3   -0.09    0.91
6   8  -3    0.06    1.19    6   8  -3    2.66    1.66    6   8  -3
2.91    1.96   -6  -8   3    3.28    1.18   -6  -8   3    5.29    2.78
-6  -8   3    2.73    1.70    5   8  -3    1.60    1.54    5   8  -3
1.37    1.55   -5  -8   3    1.33    0.94   -5  -8   3    2.62    1.46
-5  -8   3    3.33    2.22    4   8  -3    6.43    1.97    4   8  -3
6.30    2.00    4   8  -3    6.72    2.34   -4  -8   3   12.30    3.13
-4  -8   3    5.96    1.74   -4  -8   3    7.53    1.22    3   8  -3
-1.10    1.40    3   8  -3   -0.57    1.63    3   8  -3    2.07
1.44   -3  -8   3    0.78    1.70   -3  -8   3   -0.41    0.89    2
8  -3   12.53    2.56    2   8  -3    8.74    2.70    2   8  -3
12.57    2.34   -2  -8   3   15.94    2.99   -2  -8   3   10.04
2.06    1   8  -3    3.00    2.14    1   8  -3    4.16    1.45    1
8  -3    6.29    1.93    1   8  -3    6.45    1.89   -1  -8   3
3.88    1.58   -1  -8   3    5.82    1.99    0   8  -3    0.77    2.00
0   8  -3    5.09    1.74    0   8  -3    5.00    1.67    0   8  -3
2.00    1.47    0  -8   3    3.88    1.52    0  -8   3    4.77    1.66
-1   8  -3   20.74    2.42   -1   8  -3   20.75    2.76   -1   8  -3
17.43    2.91   -1   8  -3   18.35    3.55    1  -8   3   13.52
2.48   -2   8  -3   57.13    4.42   -2   8  -3   54.54    4.68   -2
8  -3   80.43    6.11    2  -8   3   66.50    4.69   -3   8  -3
31.47    3.79   -3   8  -3   37.16    3.97   -3   8  -3   27.89
4.35   -3   8  -3   30.48    3.73    3  -8   3   21.51    3.27    3
-8   3   27.43    3.66   -4   8  -3   44.63    4.44   -4   8  -3
38.83    4.28   -4   8  -3   37.18    4.96   -4   8  -3   36.42
4.12    4  -8   3   45.87    4.54    4  -8   3   44.47    4.51   -5
8  -3   23.50    3.62   -5   8  -3   32.50    4.13   -5   8  -3
23.17    3.65   -5   8  -3   26.10    4.33    5  -8   3   26.37
3.74    5  -8   3   24.79    3.75   -6   8  -3   28.20    4.11   -6
8  -3   32.72    4.49   -6   8  -3   30.11    4.22    6  -8   3
31.94    4.33    6  -8   3   23.71    3.92   -7   8  -3   -0.17
1.73   -7   8  -3    6.09    2.40   -7   8  -3    0.83    1.86    7
-8   3    2.79    2.04    7  -8   3    4.88    2.20   -8   8  -3
-0.86    1.57   -8   8  -3    1.29    1.86   -8   8  -3    0.88
1.96    8  -8   3    0.29    1.67   10   7  -3   34.20    5.43   10
7  -3   34.24    4.94  -10  -7   3   32.77    4.43    9   7  -3
13.99    3.11    9   7  -3   19.70    4.16   -9  -7   3   17.25
3.27    8   7  -3    6.78    2.41    8   7  -3    9.69    3.05   -8
-7   3   11.59    2.58    7   7  -3    6.18    2.17    7   7  -3
5.50    1.85    7   7  -3    9.47    2.71   -7  -7   3    4.64    1.32
-7  -7   3    7.78    2.96   -7  -7   3    7.45    2.11    6   7  -3
-0.66    1.40    6   7  -3   -0.42    1.18    6   7  -3   -1.29
1.33   -6  -7   3   -0.11    1.18   -6  -7   3    0.33    0.84   -6
-7   3    1.75    1.90   -6  -7   3    2.19    1.04    5   7  -3
4.81    1.88    5   7  -3    5.69    2.10    5   7  -3    7.00    2.08
-5  -7   3    3.79    2.23   -5  -7   3    6.74    1.30   -5  -7   3
5.23    1.71    4   7  -3   16.50    2.76    4   7  -3   19.58    2.66
4   7  -3   13.18    2.41   -4  -7   3   16.12    3.38   -4  -7   3
20.16    1.75   -4  -7   3   17.21    2.61    3   7  -3   47.24
4.09    3   7  -3   57.82    4.53    3   7  -3   58.91    3.96   -3
-7   3   58.10    2.56   -3  -7   3   59.19    4.04   -3  -7   3
55.77    5.07    2   7  -3   43.98    3.49    2   7  -3   49.32
4.46    2   7  -3   44.76    3.97    2   7  -3   53.71    3.21   -2
-7   3   47.41    4.37   -2  -7   3   51.33    3.63    1   7  -3
100.90    4.76    1   7  -3   94.34    4.79    1   7  -3   93.17
6.05    1   7  -3   89.82    5.26   -1  -7   3   89.83    5.06   -1
-7   3   97.18    5.58    0   7  -3  118.60    7.15    0   7  -3
123.36    5.44    0   7  -3  119.67    6.23    0   7  -3  125.68
5.80    0  -7   3  126.11    6.08    0  -7   3  124.34    6.05   -1
7  -3  122.38    6.14   -1   7  -3  124.33    6.43   -1   7  -3
118.77    7.36   -1   7  -3  122.80    5.29    1  -7   3  125.92
6.20    1  -7   3  130.72    5.78   -2   7  -3  155.22    7.36   -2
7  -3  149.49    7.42   -2   7  -3  162.82    8.74    2  -7   3
156.45    7.37    2  -7   3  165.70    7.67   -3   7  -3  119.84
7.33   -3   7  -3   97.44    5.87   -3   7  -3  102.53    5.89   -3
7  -3  100.61    5.95    3  -7   3   93.66    5.76    3  -7   3
103.41    5.86   -4   7  -3  176.61    8.26   -4   7  -3  158.16
8.03   -4   7  -3  161.21    8.08   -4   7  -3  162.56    9.10    4
-7   3  167.35    8.09    4  -7   3  158.07    7.98   -5   7  -3
103.27    7.27   -5   7  -3  114.01    6.83   -5   7  -3  122.25
7.05   -5   7  -3  125.94    7.18    5  -7   3  127.44    7.03    5
-7   3  145.38    7.45   -6   7  -3   41.80    5.03   -6   7  -3
35.60    4.26   -6   7  -3   28.32    3.99   -6   7  -3   37.05
4.39    6  -7   3   41.64    4.61    6  -7   3   40.05    4.40   -7
7  -3   74.72    6.09   -7   7  -3   72.50    6.16   -7   7  -3
79.27    6.14    7  -7   3   73.10    6.03    7  -7   3   69.09
6.03   -8   7  -3   48.06    5.31   -8   7  -3   42.35    5.09   -8
7  -3   49.03    5.60    8  -7   3   43.81    5.11   -9   7  -3
22.75    4.41   -9   7  -3   19.25    3.90   -9   7  -3   11.54
3.27    9  -7   3   17.31    3.59   11   6  -3    5.32    2.65   11
6  -3    3.40    2.90  -11  -6   3    5.37    2.45   10   6  -3
4.30    2.90   10   6  -3    4.02    2.35  -10  -6   3    6.28    2.35
9   6  -3   21.11    4.27    9   6  -3   21.21    3.59   -9  -6   3
18.66    3.39    8   6  -3   12.48    3.19    8   6  -3   17.40
3.13   -8  -6   3   12.60    2.70   -8  -6   3   16.46    3.89   -8
-6   3   15.92    2.16    7   6  -3   29.68    4.15    7   6  -3
26.46    2.75    7   6  -3   24.82    3.46   -7  -6   3   24.64
2.39   -7  -6   3   22.89    4.22   -7  -6   3   30.66    3.54    6
6  -3    4.78    1.78    6   6  -3    6.24    1.97    6   6  -3
6.76    2.39   -6  -6   3    6.69    1.86   -6  -6   3    5.84    2.47
-6  -6   3    7.58    1.44    5   6  -3    0.22    1.04    5   6  -3
1.57    1.56    5   6  -3   -1.83    1.41   -5  -6   3    0.57    1.03
-5  -6   3    1.26    0.84   -5  -6   3    1.63    1.79    4   6  -3
-0.74    1.24    4   6  -3   -0.39    0.97    4   6  -3    1.47
1.48    4   6  -3   -0.41    1.28    4   6  -3   -0.18    0.67   -4
-6   3   -0.69    1.56   -4  -6   3   -0.75    0.54   -4  -6   3
0.29    1.00    3   6  -3    1.17    1.51    3   6  -3    5.12    1.70
3   6  -3    4.07    1.50    3   6  -3    3.36    1.54    3   6  -3
2.27    0.90   -3  -6   3   -0.02    1.49   -3  -6   3    2.63    0.77
-3  -6   3    2.37    1.29    2   6  -3    2.71    1.26    2   6  -3
2.26    1.44    2   6  -3    2.79    1.35    2   6  -3    2.28    0.90
2   6  -3    2.85    1.71   -2  -6   3    2.62    0.54   -2  -6   3
2.59    1.17   -2  -6   3    1.41    1.55    1   6  -3   46.94    4.14
1   6  -3   49.27    2.85    1   6  -3   38.90    3.37    1   6  -3
44.34    2.96   -1  -6   3   43.00    3.24   -1  -6   3   46.40
3.59    0   6  -3   37.93    2.60    0   6  -3   34.91    3.18    0
6  -3   35.68    2.61    0   6  -3   30.02    3.48    0  -6   3
33.23    2.98    0  -6   3   32.53    2.88   -1   6  -3   48.10
2.66   -1   6  -3   44.09    3.18   -1   6  -3   42.60    4.13   -1
6  -3   43.56    3.60    1  -6   3   43.14    2.95    1  -6   3
44.67    3.33   -2   6  -3   82.28    4.94   -2   6  -3   87.81
5.86   -2   6  -3   93.24    4.93    2  -6   3   91.16    5.07    2
-6   3   80.20    4.86    2  -6   3   94.22    4.26   -3   6  -3
124.40    6.13   -3   6  -3  109.12    6.81   -3   6  -3  113.08
6.06    3  -6   3  124.10    6.23    3  -6   3  111.74    5.98   -4
6  -3   86.46    5.51   -4   6  -3   97.18    5.63   -4   6  -3
96.37    6.41   -4   6  -3   93.62    5.56    4  -6   3   95.58
5.70    4  -6   3   96.45    5.58   -5   6  -3  156.31    7.87   -5
6  -3  159.18    7.74   -5   6  -3  159.70    8.61   -5   6  -3
152.63    7.71    5  -6   3  138.69    7.37    5  -6   3  147.94
7.60   -6   6  -3   51.91    4.89   -6   6  -3   63.72    5.49   -6
6  -3   49.82    4.66   -6   6  -3   57.53    4.83    6  -6   3
60.49    4.92    6  -6   3   57.70    4.96   -7   6  -3   50.48
5.18   -7   6  -3   48.88    4.80   -7   6  -3   55.40    5.27    7
-6   3   48.65    5.00    7  -6   3   56.16    5.04   -8   6  -3
58.27    5.53   -8   6  -3   51.52    5.39   -8   6  -3   51.54
5.61    8  -6   3   69.63    5.78   -9   6  -3   41.11    5.18   -9
6  -3   46.32    5.77   -9   6  -3   41.43    5.10    9  -6   3
41.25    4.98  -10   6  -3   10.21    3.13  -10   6  -3   15.14
3.74  -10   6  -3   13.92    3.83   10  -6   3   12.90    3.34   11
5  -3   40.64    6.29   11   5  -3   36.61    4.96  -11  -5   3
40.67    5.13   10   5  -3   50.89    5.34   10   5  -3   60.70
6.89  -10  -5   3   57.20    5.44    9   5  -3   58.25    5.37    9
5  -3   58.45    6.42   -9  -5   3   65.44    5.38   -9  -5   3
65.55    6.60    8   5  -3   53.81    4.82    8   5  -3   55.80
5.85   -8  -5   3   54.09    4.71   -8  -5   3   54.06    3.48   -8
-5   3   58.20    6.09    7   5  -3   61.20    3.83    7   5  -3
70.94    4.85    7   5  -3   65.44    5.82   -7  -5   3   59.63
3.53   -7  -5   3   60.55    6.00   -7  -5   3   64.66    4.60    6
5  -3   66.48    4.18    6   5  -3   60.63    4.36    6   5  -3
59.86    5.22   -6  -5   3   61.39    5.74   -6  -5   3   73.38
4.65   -6  -5   3   72.08    3.60    5   5  -3   22.53    2.76    5
5  -3   14.97    2.82    5   5  -3   20.58    2.04    5   5  -3
21.60    2.61   -5  -5   3    8.95    2.68   -5  -5   3   22.88
1.94   -5  -5   3   23.74    2.76    4   5  -3   14.22    2.24    4
5  -3   18.23    1.71    4   5  -3   24.28    2.98    4   5  -3
16.16    2.30    4   5  -3   19.49    2.41   -4  -5   3   14.89
2.99   -4  -5   3   13.39    2.13   -4  -5   3   18.69    1.65    3
5  -3    3.64    1.59    3   5  -3    3.21    1.23    3   5  -3
5.46    1.56    3   5  -3    4.12    1.46    3   5  -3    3.14    0.87
-3  -5   3    2.64    1.63   -3  -5   3    4.23    0.83   -3  -5   3
2.65    1.11    2   5  -3   -0.73    0.63    2   5  -3   -0.02    0.92
2   5  -3   -0.56    0.91    2   5  -3   -1.19    0.94    2   5  -3
0.78    0.58   -2  -5   3    1.06    0.46   -2  -5   3    0.33    0.81
-2  -5   3    0.60    0.49   -2  -5   3    1.52    1.21    1   5  -3
-0.36    0.99    1   5  -3    0.17    0.57    1   5  -3   -0.30
0.81    1   5  -3   -0.85    0.59   -1  -5   3   -0.32    0.67   -1
-5   3    0.37    0.95    0   5  -3   34.72    2.40    0   5  -3
37.67    2.22    0   5  -3   35.01    3.36    0   5  -3   31.35
2.83    0  -5   3   34.08    2.67    0  -5   3   37.69    2.80   -1
5  -3   55.27    3.28   -1   5  -3   59.49    4.20   -1   5  -3
57.89    2.40   -1   5  -3   62.01    3.82    1  -5   3   57.16
3.66    1  -5   3   55.86    3.54    1  -5   3   60.03    3.30   -2
5  -3   37.52    3.16   -2   5  -3   40.92    3.74   -2   5  -3
42.27    3.05    2  -5   3   42.21    3.34    2  -5   3   41.13
3.12    2  -5   3   39.28    2.47   -3   5  -3   64.37    4.04   -3
5  -3   61.34    4.64   -3   5  -3   54.55    3.84    3  -5   3
69.01    3.13    3  -5   3   58.34    3.92    3  -5   3   68.46
4.22   -4   5  -3  101.45    5.58   -4   5  -3  111.23    5.84   -4
5  -3   98.85    5.60   -4   5  -3  109.19    6.39    4  -5   3
104.18    5.65    4  -5   3  101.13    5.63   -5   5  -3   24.12
3.11   -5   5  -3   24.01    3.47   -5   5  -3   25.00    3.08   -5
5  -3   26.04    3.25    5  -5   3   24.33    3.07    5  -5   3
23.49    2.98   -6   5  -3   43.55    4.24   -6   5  -3   53.40
4.81   -6   5  -3   49.06    4.33   -6   5  -3   52.51    4.62    6
-5   3   38.69    3.94    6  -5   3   43.11    4.21   -7   5  -3
20.56    3.26   -7   5  -3   22.30    3.58   -7   5  -3   18.79
3.25    7  -5   3   22.12    3.49    7  -5   3   16.76    3.00   -8
5  -3   34.60    4.31   -8   5  -3   29.76    4.29   -8   5  -3
32.85    4.20    8  -5   3   30.19    4.00   -9   5  -3   19.06
3.62   -9   5  -3   17.83    3.88   -9   5  -3   12.02    3.04    9
-5   3   15.48    3.28  -10   5  -3   18.28    3.78  -10   5  -3
15.48    3.85  -10   5  -3   14.10    3.44   10  -5   3   11.14
3.11   11   4  -3   21.11    4.03   11   4  -3   21.28    4.93  -11
-4   3   32.23    4.59   10   4  -3   51.61    5.24   10   4  -3
59.73    6.84  -10  -4   3   55.63    5.39    9   4  -3   72.10
6.93    9   4  -3   61.58    5.31   -9  -4   3   67.25    6.44   -9
-4   3   79.01    5.62    8   4  -3   69.47    5.04    8   4  -3
66.25    6.37   -8  -4   3   63.92    3.84   -8  -4   3   72.86
5.11   -8  -4   3   71.40    6.27    7   4  -3   96.31    5.66    7
4  -3  102.11    6.91    7   4  -3   95.73    4.69   -7  -4   3
99.62    4.64   -7  -4   3   92.01    5.59   -7  -4   3   91.99
6.69    6   4  -3   99.57    5.53    6   4  -3   98.38    6.55    6
4  -3  108.57    4.97    6   4  -3  104.96    5.09   -6  -4   3
99.72    4.45   -6  -4   3   96.18    5.45   -6  -4   3  109.76
6.96    5   4  -3   49.48    3.66    5   4  -3   56.40    3.31    5
4  -3   54.34    3.10    5   4  -3   62.95    4.90    5   4  -3
52.58    3.60   -5  -4   3   49.71    4.73   -5  -4   3   55.65
2.92   -5  -4   3   57.32    3.84    4   4  -3   20.32    1.72    4
4  -3   20.71    2.10    4   4  -3   22.32    2.34    4   4  -3
16.50    2.64    4   4  -3   19.61    2.29   -4  -4   3   18.16
1.58   -4  -4   3   19.29    3.00   -4  -4   3   20.58    2.31    3
4  -3    9.79    1.06    3   4  -3    7.22    1.54    3   4  -3
7.46    1.88    3   4  -3    9.80    1.67   -3  -4   3    9.24    1.02
-3  -4   3    9.69    1.70   -3  -4   3    8.25    2.00   -3  -4   3
9.47    1.05    2   4  -3   17.22    2.00    2   4  -3   19.88    2.19
2   4  -3   18.65    2.02    2   4  -3   18.56    1.25    2   4  -3
18.30    1.82   -2  -4   3   20.07    1.26   -2  -4   3   16.23
1.06   -2  -4   3   19.62    2.49   -2  -4   3   20.90    2.09    1
4  -3   15.25    1.85    1   4  -3   15.78    1.24    1   4  -3
10.58    1.78    1   4  -3   13.71    1.45   -1  -4   3   14.08
1.78   -1  -4   3   12.71    1.88    0   4  -3    3.91    0.71    0
4  -3    2.03    0.97    0   4  -3    1.53    1.03    0   4  -3
3.26    0.88    0  -4   3    2.50    0.97    0  -4   3    2.20    0.93
-1   4  -3  107.22    4.89   -1   4  -3  106.53    5.35   -1   4  -3
109.41    4.53    1  -4   3  114.51    4.71    1  -4   3   97.61
4.76    1  -4   3  110.51    4.92   -2   4  -3   53.01    3.14   -2
4  -3   48.86    3.20   -2   4  -3   53.66    3.85    2  -4   3
50.87    3.28    2  -4   3   55.66    3.40    2  -4   3   56.97
2.85   -3   4  -3   40.83    3.60   -3   4  -3   37.67    2.88   -3
4  -3   36.02    2.85    3  -4   3   41.80    3.03    3  -4   3
31.12    2.84    3  -4   3   38.93    2.21   -4   4  -3   47.48
3.49   -4   4  -3   56.28    3.72   -4   4  -3   56.38    4.25   -4
4  -3   50.66    2.62   -4   4  -3   58.31    3.91    4  -4   3
58.44    3.87    4  -4   3   47.77    3.48    4  -4   3   52.08
3.03    4  -4   3   53.63    3.83   -5   4  -3   73.94    4.76   -5
4  -3   75.16    4.75   -5   4  -3   76.13    4.68   -5   4  -3
78.24    5.16    5  -4   3   83.17    4.83    5  -4   3   74.62
4.75    5  -4   3   76.29    4.78   -6   4  -3  172.05    8.40   -6
4  -3  173.07    8.29   -6   4  -3  181.71    8.26    6  -4   3
181.58    8.42    6  -4   3  181.56    8.20    6  -4   3  167.20
7.94   -7   4  -3  167.40    8.34   -7   4  -3  175.53    8.69   -7
4  -3  175.89    8.27    7  -4   3  152.51    8.28    7  -4   3
176.95    8.48    7  -4   3  171.59    8.21   -8   4  -3  146.93
7.71   -8   4  -3  135.66    7.94   -8   4  -3  122.84    7.38    8
-4   3  141.93    8.04    8  -4   3  129.48    7.33   -9   4  -3
88.54    6.67   -9   4  -3   85.62    6.15   -9   4  -3   93.09
6.45    9  -4   3   89.07    6.62    9  -4   3   83.93    6.01  -10
4  -3   74.91    6.48  -10   4  -3   74.17    6.89   10  -4   3
70.05    6.74   10  -4   3   60.84    5.88  -11   4  -3   46.59
5.77   11   3  -3   18.64    4.72   11   3  -3   21.67    3.99  -11
-3   3   21.37    3.86   10   3  -3   26.07    3.95   10   3  -3
28.74    5.13  -10  -3   3   25.68    3.99    9   3  -3   26.82
3.66    9   3  -3   34.37    5.17   -9  -3   3   26.86    2.81   -9
-3   3   36.36    4.12   -9  -3   3   35.13    4.61    8   3  -3
72.72    4.73    8   3  -3   72.96    5.09    8   3  -3   83.44
6.97   -8  -3   3   73.63    5.13   -8  -3   3   68.83    3.99   -8
-3   3   78.21    5.96    7   3  -3   59.07    3.45    7   3  -3
55.14    3.82    7   3  -3   49.61    4.20    7   3  -3   59.67
5.61   -7  -3   3   57.91    3.38   -7  -3   3   64.21    4.03   -7
-3   3   68.01    5.38   -7  -3   3   62.19    4.45    6   3  -3
42.39    3.19    6   3  -3   44.48    3.11    6   3  -3   48.37
3.54    6   3  -3   43.31    4.61   -6  -3   3   41.72    2.67   -6
-3   3   48.95    3.63   -6  -3   3   44.49    4.40   -6  -3   3
45.01    3.07    5   3  -3   36.38    2.89    5   3  -3   32.18
2.35    5   3  -3   32.52    2.87    5   3  -3   40.13    4.00    5
3  -3   29.52    2.25   -5  -3   3   25.07    3.39   -5  -3   3
34.99    2.21   -5  -3   3   30.61    2.92    4   3  -3   15.30
1.93    4   3  -3   17.96    2.77    4   3  -3   15.11    1.45    4
3  -3   16.62    1.68    4   3  -3   12.83    1.87   -4  -3   3
13.95    1.95   -4  -3   3   12.77    2.41   -4  -3   3   17.40
1.46    3   3  -3    0.67    0.62    3   3  -3    1.26    0.99    3
3  -3    2.20    0.89    3   3  -3    1.17    0.52    3   3  -3
3.49    1.51   -3  -3   3   -0.38    0.66   -3  -3   3   -0.25    0.94
-3  -3   3    1.63    0.59    2   3  -3    2.06    1.24    2   3  -3
2.81    0.99    2   3  -3    0.94    0.37    2   3  -3    1.28    0.79
2   3  -3    0.76    0.72   -2  -3   3    0.94    0.72   -2  -3   3
1.40    0.56   -2  -3   3    1.99    0.47   -2  -3   3    1.25    1.01
1   3  -3    1.01    0.36    1   3  -3    2.44    0.74    1   3  -3
1.11    0.70    1   3  -3    1.98    0.85   -1  -3   3    1.50    0.77
-1  -3   3    1.03    0.79    0   3  -3   47.29    2.87    0   3  -3
45.78    2.71    0   3  -3   46.37    2.11    0  -3   3   45.58
2.70    0  -3   3   35.98    2.45   -1   3  -3    2.02    0.97   -1
3  -3    1.52    0.68   -1   3  -3    1.21    0.74    1  -3   3
2.32    0.87    1  -3   3    3.02    0.93    1  -3   3    0.67    0.58
-2   3  -3    2.70    1.00   -2   3  -3    3.67    0.96   -2   3  -3
3.54    1.25    2  -3   3    3.35    0.84    2  -3   3    2.65    0.95
2  -3   3    3.21    1.08    2  -3   3    3.60    1.09   -3   3  -3
5.75    1.52   -3   3  -3    7.59    1.44   -3   3  -3    9.12    1.69
-3   3  -3    8.69    1.49    3  -3   3    8.77    1.54    3  -3   3
6.55    1.11    3  -3   3    6.77    1.50    3  -3   3    6.81    1.03
3  -3   3    7.16    1.45   -4   3  -3   -0.33    0.78   -4   3  -3
0.49    0.65   -4   3  -3   -0.53    1.09   -4   3  -3    1.58    1.01
-4   3  -3    1.87    0.98    4  -3   3    0.72    0.56    4  -3   3
1.21    0.88    4  -3   3    0.21    0.89    4  -3   3    0.86    0.90
4  -3   3    2.10    1.15   -5   3  -3    2.42    1.01   -5   3  -3
3.02    1.36   -5   3  -3    2.48    1.37   -5   3  -3    2.22    1.62
-5   3  -3    2.50    1.18    5  -3   3    4.47    1.54    5  -3   3
3.63    1.49    5  -3   3    1.48    1.17    5  -3   3    2.77    1.22
-6   3  -3    4.55    1.50   -6   3  -3    1.24    1.25   -6   3  -3
5.02    1.78   -6   3  -3    3.40    1.82    6  -3   3    1.83    1.34
6  -3   3    2.26    1.22    6  -3   3    2.48    1.51    6  -3   3
3.36    1.53   -7   3  -3    0.50    1.17   -7   3  -3    0.57    1.28
7  -3   3    3.07    1.62    7  -3   3   -0.03    1.20    7  -3   3
0.98    1.32   -8   3  -3    0.84    1.42   -8   3  -3   -0.03    1.29
8  -3   3   -1.63    1.05    8  -3   3    2.43    1.55    8  -3   3
1.24    1.26   -9   3  -3   -0.32    1.31   -9   3  -3    0.84    1.62
9  -3   3    1.74    1.79    9  -3   3    0.76    1.36  -10   3  -3
0.49    1.74  -10   3  -3    0.66    1.68   10  -3   3    0.67    1.62
10  -3   3    0.63    1.88  -11   3  -3   -1.01    1.85  -11   3  -3
2.74    2.01  -11   3  -3    3.04    2.32   11  -3   3    0.69    2.10
11  -3   3    2.21    1.96   11   2  -3   49.77    6.72   11   2  -3
43.33    5.10  -11  -2   3   50.47    5.59   10   2  -3   75.08
5.68   10   2  -3   81.97    7.81  -10  -2   3   74.75    6.21    9
2  -3   92.26    6.00    9   2  -3   95.36    7.49    9   2  -3
95.66    5.95   -9  -2   3   83.63    6.00   -9  -2   3   84.98
4.70    8   2  -3  112.20    6.22    8   2  -3  114.27    7.93    8
2  -3  108.05    6.28   -8  -2   3  110.56    6.94   -8  -2   3
121.71    5.37   -8  -2   3  126.23    6.52   -8  -2   3  121.19
6.76    7   2  -3  104.17    5.70    7   2  -3   93.39    5.26    7
2  -3  120.92    7.71   -7  -2   3  111.99    5.65   -7  -2   3
113.38    6.11   -7  -2   3  101.95    4.70   -7  -2   3  110.96
6.58    6   2  -3  222.69   10.56    6   2  -3  221.72    7.87    6
2  -3  223.95    8.78    6   2  -3  214.11    8.29   -6  -2   3
212.87    8.85   -6  -2   3  232.36    8.42   -6  -2   3  214.59
7.46   -6  -2   3  207.73    9.59    5   2  -3  356.30   10.95    5
2  -3  343.30   11.47    5   2  -3  325.97   13.35    5   2  -3
331.97   11.05   -5  -2   3  359.72   11.18   -5  -2   3  332.43
10.21   -5  -2   3  335.18   11.62   -5  -2   3  324.25   12.69    4
2  -3  327.66   10.68    4   2  -3  320.87   10.28    4   2  -3
324.28   10.21    4   2  -3  319.40   12.41   -4  -2   3  326.44
9.60   -4  -2   3  324.49   10.89   -4  -2   3  329.92   12.03   -4
-2   3  336.13   10.26    3   2  -3  253.19    8.45    3   2  -3
255.53    7.81    3   2  -3  251.13    8.21    3   2  -3  253.20
9.88   -3  -2   3  259.19    9.64   -3  -2   3  242.51    8.64   -3
-2   3  262.06    7.54   -3  -2   3  265.81    7.84    2   2  -3
11.95    0.81    2   2  -3   12.41    1.42    2   2  -3   12.04
1.32    2   2  -3   10.69    1.80   -2  -2   3   12.97    1.03   -2
-2   3    9.97    1.56   -2  -2   3   15.55    0.98   -2  -2   3
14.09    1.55    1   2  -3   29.63    1.51    1   2  -3   26.00
1.87    1   2  -3   33.92    2.33   -1  -2   3   27.04    2.11   -1
-2   3   25.96    1.93    0   2  -3   12.02    1.32    0   2  -3
10.23    0.79    0   2  -3   12.79    1.50    0  -2   3   10.17
1.32    0  -2   3   13.30    1.43   -1   2  -3  161.78    5.43   -1
2  -3  163.43    6.15   -1   2  -3  157.88    5.74    1  -2   3
160.41    5.86    1  -2   3  176.16    5.54    1  -2   3  170.39
5.81    1  -2   3  173.33    6.04   -2   2  -3   89.97    4.20   -2
2  -3   92.78    4.05   -2   2  -3   96.80    3.91    2  -2   3
93.79    3.85    2  -2   3   92.27    4.01    2  -2   3   98.99
3.94    2  -2   3   96.46    4.16   -3   2  -3    0.50    0.79   -3
2  -3    0.03    0.47   -3   2  -3    1.16    0.73   -3   2  -3
1.80    0.86   -3   2  -3    0.34    0.60    3  -2   3    0.71    0.68
3  -2   3    0.29    0.66    3  -2   3    1.11    0.74    3  -2   3
1.55    0.62    3  -2   3   -1.31    0.49   -4   2  -3   39.14    2.80
-4   2  -3   41.69    3.04   -4   2  -3   50.71    3.14   -4   2  -3
41.34    2.97   -4   2  -3   44.19    2.57    4  -2   3   43.47
2.91    4  -2   3   44.19    2.97    4  -2   3   45.97    2.57    4
-2   3   47.58    3.14    4  -2   3   46.33    2.92   -5   2  -3
103.07    5.13   -5   2  -3   95.65    5.13   -5   2  -3  105.27
4.57   -5   2  -3  100.38    5.11    5  -2   3  102.16    5.07    5
-2   3   93.43    4.99    5  -2   3   99.78    5.20   -6   2  -3
105.32    5.33   -6   2  -3   99.96    5.64   -6   2  -3  105.17
5.48    6  -2   3  101.76    5.38    6  -2   3   92.26    5.38    6
-2   3   92.93    5.17    6  -2   3   88.60    5.22   -7   2  -3
87.17    5.68   -7   2  -3   85.52    5.30    7  -2   3   84.03
5.44    7  -2   3   94.74    5.64    7  -2   3   85.23    5.21   -8
2  -3   93.89    5.86   -8   2  -3   85.08    6.10    8  -2   3
105.91    6.47    8  -2   3   99.03    5.95    8  -2   3   98.89
6.31   -9   2  -3   86.44    5.99   -9   2  -3   79.63    6.22    9
-2   3   91.05    6.00    9  -2   3  105.97    6.72    9  -2   3
86.71    6.35  -10   2  -3  119.00    7.38  -10   2  -3  104.92
7.56   10  -2   3  109.22    7.55   10  -2   3   97.36    6.86   10
-2   3  128.01    7.91  -11   2  -3  102.26    7.07  -11   2  -3
90.01    7.75   11  -2   3   87.26    7.56   11  -2   3   88.35
6.80   11   1  -3    0.65    1.74   11   1  -3    1.87    2.67  -11
-1   3    5.90    2.33   10   1  -3    0.00    2.08   10   1  -3
0.80    1.60   10   1  -3    1.06    1.69  -10  -1   3    4.09    2.05
9   1  -3    0.45    1.32    9   1  -3    1.26    2.13    9   1  -3
3.02    1.71   -9  -1   3    1.31    1.07   -9  -1   3    2.61    1.66
-9  -1   3    2.46    1.72    8   1  -3   -0.68    1.60    8   1  -3
1.00    1.18    8   1  -3   -0.77    1.04   -8  -1   3   -0.37    1.27
-8  -1   3    0.78    0.95   -8  -1   3   -1.22    1.07   -8  -1   3
0.74    1.32    7   1  -3   12.03    2.32    7   1  -3   14.26    2.37
7   1  -3   16.82    1.76    7   1  -3   15.29    3.45   -7  -1   3
17.68    2.55   -7  -1   3   14.20    2.61   -7  -1   3   10.36
2.25   -7  -1   3   13.61    1.78    6   1  -3   17.41    2.32    6
1  -3   14.99    2.17    6   1  -3   15.02    2.00    6   1  -3
15.54    3.20   -6  -1   3   16.28    1.74   -6  -1   3   19.32
2.75   -6  -1   3   16.59    2.25   -6  -1   3   12.78    2.26    5
1  -3    0.33    0.76    5   1  -3    1.31    1.66    5   1  -3
0.59    0.83    5   1  -3    1.10    1.16   -5  -1   3    0.91    0.99
-5  -1   3    0.16    0.88   -5  -1   3    1.52    0.74   -5  -1   3
0.17    1.06    4   1  -3    1.83    0.84    4   1  -3    1.26    1.43
4   1  -3    1.93    1.01    4   1  -3    1.49    0.80   -4  -1   3
1.84    1.01   -4  -1   3    2.34    0.69   -4  -1   3    1.39    0.82
-4  -1   3    2.80    1.08    3   1  -3   -1.27    0.95    3   1  -3
0.38    0.58    3   1  -3   -0.52    0.44    3   1  -3   -0.64    0.70
-3  -1   3   -0.41    0.48   -3  -1   3   -0.20    0.62   -3  -1   3
0.80    0.50   -3  -1   3   -0.30    0.56    2   1  -3    2.77    0.82
2   1  -3    1.21    1.13    2   1  -3    2.72    0.76   -2  -1   3
2.11    0.82   -2  -1   3    1.85    0.56   -2  -1   3    1.22    0.46
-2  -1   3    0.73    0.71    1   1  -3   30.57    2.31    1   1  -3
30.11    1.77    1   1  -3   32.37    1.50   -1  -1   3   33.64
2.00    0   1  -3   65.17    2.71    0  -1   3   66.36    3.13   -1
1  -3   29.37    1.76    1  -1   3   32.43    1.96    1  -1   3
30.61    1.95    1  -1   3   32.01    1.63    1  -1   3   35.06
1.85   -2   1  -3   62.21    2.86   -2   1  -3   58.57    2.96    2
-1   3   62.57    2.89    2  -1   3   58.95    2.77    2  -1   3
60.40    2.96    2  -1   3   62.12    2.98   -3   1  -3   90.24
4.04   -3   1  -3   90.11    3.95   -3   1  -3   99.79    4.09    3
-1   3   92.37    3.97    3  -1   3   90.08    4.10    3  -1   3
95.86    4.14    3  -1   3   92.38    4.04    3  -1   3   93.92
4.04   -4   1  -3    0.77    0.77   -4   1  -3    0.24    0.63   -4
1  -3    2.61    0.95    4  -1   3    1.13    0.81    4  -1   3
0.78    0.71    4  -1   3    0.47    0.68    4  -1   3    0.49    0.74
-5   1  -3    2.17    1.05   -5   1  -3    3.53    1.23   -5   1  -3
0.11    0.83   -5   1  -3    3.31    1.24    5  -1   3    1.59    1.06
5  -1   3    4.87    1.33    5  -1   3    0.47    0.81    5  -1   3
1.68    1.16   -6   1  -3   -0.37    0.86   -6   1  -3   -0.46    0.94
-6   1  -3    0.34    1.12    6  -1   3    0.29    1.09    6  -1   3
-1.37    0.65    6  -1   3    0.20    1.21   -7   1  -3    2.12
1.43   -7   1  -3    4.45    1.70    7  -1   3    2.06    1.62    7
-1   3    3.68    1.51    7  -1   3    1.20    1.29   -8   1  -3
19.55    2.99   -8   1  -3   16.25    2.97    8  -1   3   14.99
2.68    8  -1   3   23.59    3.39    8  -1   3   26.04    3.59   -9
1  -3   13.67    2.86   -9   1  -3    8.99    2.55    9  -1   3
13.41    2.74    9  -1   3   10.17    2.59    9  -1   3   15.00
3.19  -10   1  -3   12.53    3.18  -10   1  -3   15.55    3.19   10
-1   3   19.41    3.70   10  -1   3   20.01    3.72   10  -1   3
21.92    3.59  -11   1  -3   24.98    4.11  -11   1  -3   30.15
4.91   11  -1   3   35.35    5.07   11  -1   3   31.83    4.87   11
-1   3   22.18    3.95   11   0  -3   15.59    4.36   11   0  -3
11.25    3.16  -11   0   3   10.93    3.09   10   0  -3   25.82
4.94   10   0  -3   29.33    4.06   10   0  -3   29.71    4.24  -10
0   3   24.14    3.92  -10   0   3   23.72    3.86    9   0  -3
49.76    5.85    9   0  -3   46.16    4.59    9   0  -3   38.71
4.18   -9   0   3   40.69    4.46   -9   0   3   38.27    3.26   -9
0   3   50.47    4.65    8   0  -3   53.40    5.77    8   0  -3
51.53    4.49    8   0  -3   62.35    4.49   -8   0   3   62.57
3.66   -8   0   3   59.34    4.54   -8   0   3   56.90    4.81    7
0  -3  196.81    8.32    7   0  -3  197.64    8.65    7   0  -3
209.84   10.66   -7   0   3  191.07    7.22   -7   0   3  201.87
8.67   -7   0   3  200.35    8.80   -7   0   3  209.29    8.62    6
0  -3  237.76   10.95    6   0  -3  218.58    8.86    6   0  -3
229.68    8.78    6   0  -3  228.15    7.63   -6   0   3  231.10
7.74   -6   0   3  215.35    8.98   -6   0   3  231.67    8.97   -6
0   3  232.86    9.06    5   0  -3  258.28    9.18    5   0  -3
258.17    9.44    5   0  -3  262.54   11.34    5   0  -3  270.15
8.72   -5   0   3  268.71    9.49   -5   0   3  274.31    9.77   -5
0   3  260.32    8.34   -5   0   3  268.78    9.78    4   0  -3
422.66   15.15    4   0  -3  427.86   12.44    4   0  -3  403.58
12.64    4   0  -3  412.09   13.08   -4   0   3  420.78   11.91   -4
0   3  428.95   13.13   -4   0   3  419.50   13.68   -4   0   3
411.93   13.17    3   0  -3  355.29   10.72    3   0  -3  362.12
10.60    3   0  -3  352.45   12.75   -3   0   3  349.70   11.62   -3
0   3  354.81   10.05   -3   0   3  373.44   11.08   -3   0   3
355.06   11.19    2   0  -3  252.64    9.05    2   0  -3  250.76
7.49    2   0  -3  247.52    7.45   -2   0   3  247.49    8.00   -2
0   3  240.34    7.02   -2   0   3  266.26    7.78   -2   0   3
241.51    8.44    1   0  -3  363.88   11.73    1   0  -3  373.91
10.17    1   0  -3  374.94    9.97   -1   0   3  359.20    9.52   -1
0   3  372.17   11.58   -1   0   3  376.92   10.53   -1   0   3
370.38    9.50    0   0  -3  236.70    6.65    0   0   3  246.95
6.94    0   0   3  224.90    7.79   -1   0  -3   82.62    2.96    1
0   3   86.86    2.98    1   0   3   85.91    3.14   -2   0  -3
25.98    1.88    2   0   3   27.59    1.91    2   0   3   30.30
2.08    2   0   3   31.39    1.78    2   0   3   28.22    1.82   -3
0  -3   96.74    4.30   -3   0  -3   97.45    3.96    3   0   3
98.30    4.28    3   0   3  104.51    4.53    3   0   3  100.83
3.97    3   0   3  102.37    4.37    3   0   3  103.98    4.09   -4
0  -3   26.65    2.25   -4   0  -3   25.98    1.78   -4   0  -3
26.85    2.12    4   0   3   25.90    2.29    4   0   3   31.08
2.16    4   0   3   22.99    2.27    4   0   3   23.77    2.05   -5
0  -3    0.11    0.71   -5   0  -3   -0.64    0.73   -5   0  -3
0.54    0.92    5   0   3    0.32    0.92    5   0   3    0.01    0.75
5   0   3   -0.74    0.58   -6   0  -3    0.78    1.24   -6   0  -3
-0.17    0.95    6   0   3    0.94    1.26    6   0   3    1.70
1.14    6   0   3    0.32    0.91   -7   0  -3   31.88    3.43   -7
0  -3   31.78    3.11   -7   0  -3   33.92    3.49    7   0   3
31.96    3.45    7   0   3   27.24    3.40    7   0   3   40.32
3.51   -8   0  -3   31.12    3.75   -8   0  -3   34.24    3.51    8
0   3   37.19    4.21    8   0   3   26.23    3.55    8   0   3
33.50    3.57   -9   0  -3   44.30    4.21   -9   0  -3   40.58
4.61    9   0   3   40.81    4.57    9   0   3   40.76    4.77    9
0   3   41.29    4.32  -10   0  -3   24.10    3.55  -10   0  -3
30.05    4.35   10   0   3   25.12    3.81   10   0   3   21.37
3.79   10   0   3   29.40    4.47  -11   0  -3   46.34    5.59  -11
0  -3   33.96    4.49   11   0   3   51.41    5.73   11   0   3
47.61    5.73   11   0   3   34.02    4.64  -12   0  -3   36.67
4.89  -12   0  -3   29.47    5.05   12   0   3   33.39    5.40   12
0   3   29.21    5.01   11  -1  -3    0.72    1.90   11  -1  -3
-1.34    2.24  -11   1   3   -1.96    1.99  -11   1   3    2.05
1.83   10  -1  -3    2.09    2.59   10  -1  -3    0.18    1.51  -10
1   3    0.85    1.54  -10   1   3   -0.79    1.68    9  -1  -3
6.73    2.13    9  -1  -3    9.81    3.26   -9   1   3    3.60    1.95
-9   1   3    3.76    1.38   -9   1   3    4.88    2.14    8  -1  -3
2.95    2.28    8  -1  -3    2.06    1.42   -8   1   3    2.13    1.53
-8   1   3    2.61    1.11   -8   1   3    4.30    1.86    7  -1  -3
42.18    4.94    7  -1  -3   46.22    3.74   -7   1   3   45.43
4.00   -7   1   3   43.62    2.97   -7   1   3   41.95    3.93    6
-1  -3   41.32    4.63    6  -1  -3   39.01    2.50    6  -1  -3
33.40    2.95   -6   1   3   37.17    3.35   -6   1   3   34.22
2.74   -6   1   3   39.50    2.61   -6   1   3   32.36    3.23    5
-1  -3   30.79    2.37    5  -1  -3   27.91    2.43    5  -1  -3
33.02    3.89   -5   1   3   30.46    2.13   -5   1   3   35.86
3.04   -5   1   3   32.19    2.85   -5   1   3   29.97    2.39    4
-1  -3   11.23    1.59    4  -1  -3   18.75    2.89    4  -1  -3
13.79    1.56   -4   1   3   13.42    1.82   -4   1   3   14.19
1.41   -4   1   3   11.82    1.77   -4   1   3   13.72    1.59    3
-1  -3  171.42    7.47    3  -1  -3  167.10    5.81    3  -1  -3
169.20    5.73   -3   1   3  175.74    6.36   -3   1   3  166.41
6.15   -3   1   3  156.55    6.14   -3   1   3  165.98    5.40    2
-1  -3  178.04    7.03    2  -1  -3  181.55    5.56    2  -1  -3
177.05    5.70   -2   1   3  171.47    5.35   -2   1   3  180.81
6.33   -2   1   3  178.76    6.10   -2   1   3  178.60    6.21    1
-1  -3   20.18    1.88    1  -1  -3   26.43    1.45    1  -1  -3
24.67    1.13   -1   1   3   23.76    1.74   -1   1   3   25.25
1.66   -1   1   3   22.58    1.20   -1   1   3   25.54    1.15    0
-1  -3   65.83    1.97    0  -1  -3   60.73    1.89    0  -1  -3
58.41    3.03    0   1   3   62.62    2.59    0   1   3   62.43
2.93    0   1   3   60.08    3.04   -1  -1  -3   47.98    2.64   -1
-1  -3   45.52    2.65    1   1   3   49.51    2.62    1   1   3
48.10    2.30    1   1   3   50.78    1.80    1   1   3   53.48
2.77   -2  -1  -3  119.17    5.07    2   1   3  136.91    4.33    2
1   3  134.19    4.86    2   1   3  129.01    5.20    2   1   3
125.54    5.09   -3  -1  -3   84.36    4.11    3   1   3   89.92
4.02    3   1   3   90.76    3.64   -4  -1  -3   51.09    2.65   -4
-1  -3   48.48    3.15    4   1   3   45.83    3.16    4   1   3
47.70    3.06    4   1   3   50.75    2.84   -5  -1  -3   38.45
2.01   -5  -1  -3   32.57    2.41   -5  -1  -3   34.58    3.05    5
1   3   39.34    2.71    5   1   3   32.83    3.07    5   1   3
36.89    2.88   -6  -1  -3    9.40    1.72   -6  -1  -3    6.28
1.92    6   1   3    9.21    1.84    6   1   3    5.58    1.84    6
1   3    8.80    1.86   -7  -1  -3    2.43    1.31   -7  -1  -3
5.21    2.00    7   1   3    5.54    1.63    7   1   3    2.68    1.67
7   1   3    3.31    1.57   -8  -1  -3    0.36    1.77   -8  -1  -3
1.74    1.29    8   1   3   -0.45    1.02    8   1   3    1.92    1.65
8   1   3   -0.04    1.04   -9  -1  -3   20.55    3.38   -9  -1  -3
26.08    3.27    9   1   3   21.20    3.43    9   1   3   27.77
4.08    9   1   3   16.45    2.93  -10  -1  -3   14.82    3.25  -10
-1  -3   22.57    3.41   10   1   3   22.51    4.09   10   1   3
17.66    3.42   10   1   3   18.86    3.44  -11  -1  -3   23.02
3.74  -11  -1  -3   20.20    3.95   11   1   3   27.96    4.42   11
1   3   31.81    4.96   11   1   3   28.86    4.35  -12  -1  -3
34.26    5.17  -12  -1  -3   25.76    4.29   12   1   3   24.92
4.51   12   1   3   33.39    5.45   12   1   3   23.93    4.33   11
-2  -3   -2.17    1.57   11  -2  -3   -2.39    2.35  -11   2   3
0.99    2.25  -11   2   3    1.06    2.00   10  -2  -3    2.98    2.89
10  -2  -3    1.25    1.63  -10   2   3    2.23    2.03  -10   2   3
6.26    2.31    9  -2  -3   16.45    3.89    9  -2  -3    8.53    2.26
-9   2   3   12.69    3.10   -9   2   3    9.43    1.96   -9   2   3
15.09    3.05    8  -2  -3   35.51    5.01    8  -2  -3   40.75
3.88   -8   2   3   36.31    3.05   -8   2   3   34.24    4.10   -8
2   3   36.54    4.04    7  -2  -3   15.83    2.44    7  -2  -3
8.72    2.90   -7   2   3   14.31    1.95   -7   2   3   12.23    2.65
-7   2   3   12.43    2.48    6  -2  -3   50.49    3.43    6  -2  -3
52.36    2.66    6  -2  -3   44.63    4.82   -6   2   3   51.71
3.99   -6   2   3   49.52    3.01   -6   2   3   58.27    4.07    5
-2  -3   83.73    3.84    5  -2  -3   90.92    4.39    5  -2  -3
81.99    5.91   -5   2   3   92.28    3.98   -5   2   3   89.31
4.09   -5   2   3   79.21    4.68   -5   2   3   89.30    4.97    4
-2  -3  289.89    9.26    4  -2  -3  301.96    9.62    4  -2  -3
301.39   11.82    4  -2  -3  311.41   10.66   -4   2   3  298.11
9.78   -4   2   3  293.26    9.08   -4   2   3  290.39   10.18   -4
2   3  299.60   10.61    3  -2  -3  257.25    8.31    3  -2  -3
266.34   10.22    3  -2  -3  263.26    8.30   -3   2   3  270.65
8.80   -3   2   3  273.93    9.00   -3   2   3  264.68    8.05   -3
2   3  277.69    9.46    2  -2  -3  220.56    6.84    2  -2  -3
226.80    7.03    2  -2  -3  213.98    8.36   -2   2   3  229.59
6.78   -2   2   3  236.94    8.05   -2   2   3  235.91    7.62   -2
2   3  222.76    7.38    1  -2  -3  249.41    8.65    1  -2  -3
253.49    6.99    1  -2  -3  245.14    7.33   -1   2   3  248.42
8.19   -1   2   3  241.36    8.24   -1   2   3  255.81    6.98   -1
2   3  248.56    7.01    0  -2  -3  568.76   17.20    0  -2  -3
576.55   14.97    0  -2  -3  563.82   17.06    0   2   3  569.40
17.17    0   2   3  579.38   14.48    0   2   3  568.18   14.46    0
2   3  569.66   16.70    0   2   3  591.55   16.70    0   2   3
560.69   17.01   -1  -2  -3   15.44    0.67   -1  -2  -3   14.87
0.67   -1  -2  -3   13.69    1.51   -1  -2  -3   10.63    1.44    1
2   3   14.67    1.09    1   2   3   13.48    1.52    1   2   3
15.47    0.87    1   2   3   13.78    1.48    1   2   3   13.47
1.39   -2  -2  -3  110.07    4.81    2   2   3  112.81    4.86    2
2   3  106.19    4.46    2   2   3  112.99    3.62    2   2   3
116.32    3.87    2   2   3  119.46    4.89   -3  -2  -3  213.46
7.93    3   2   3  202.67    7.81    3   2   3  216.38    6.86    3
2   3  211.36    7.51   -4  -2  -3   41.38    2.23   -4  -2  -3
37.50    2.89    4   2   3   42.43    3.04    4   2   3   38.38
2.72    4   2   3   40.65    2.51   -5  -2  -3   63.70    4.15   -5
-2  -3   63.24    3.15    5   2   3   59.94    3.77    5   2   3
57.58    3.46    5   2   3   61.38    4.11   -6  -2  -3   28.51
2.46   -6  -2  -3   32.48    3.48    6   2   3   28.74    3.03    6
2   3   32.32    2.83    6   2   3   24.18    3.05   -7  -2  -3
8.99    1.78   -7  -2  -3    4.17    2.15    7   2   3    9.03    2.06
7   2   3    4.88    1.54    7   2   3    9.61    2.34   -8  -2  -3
6.16    2.34   -8  -2  -3   -0.45    1.03    8   2   3    1.39    1.23
8   2   3    1.59    1.64    8   2   3    1.92    1.32   -9  -2  -3
1.05    1.27   -9  -2  -3   -0.58    2.09    9   2   3   -0.30    1.46
9   2   3   -0.70    1.13    9   2   3   -1.66    1.02  -10  -2  -3
0.42    1.46  -10  -2  -3    0.74    1.64   10   2   3    0.35    1.35
10   2   3    1.81    1.89   10   2   3   -0.05    1.56  -11  -2  -3
10.08    2.93  -11  -2  -3    3.63    1.95   11   2   3    6.19
2.49   11   2   3    2.55    2.32   11   2   3    5.34    2.32  -12
-2  -3    8.48    3.02   12   2   3    6.85    2.92   12   2   3
18.33    4.34   12   2   3    8.99    3.03   11  -3  -3    5.63
2.61   11  -3  -3    2.92    2.94  -11   3   3    0.87    2.21  -11
3   3    1.87    2.26   10  -3  -3   -1.32    2.13   10  -3  -3
-0.91    1.36  -10   3   3    2.53    2.05  -10   3   3   -1.58
1.21    9  -3  -3   -0.64    1.22    9  -3  -3    0.43    2.05   -9
3   3   -0.38    1.41   -9   3   3   -0.58    1.69    8  -3  -3
3.56    1.62    8  -3  -3    1.77    2.23   -8   3   3    1.16    1.13
-8   3   3    1.24    1.42   -8   3   3    1.82    1.65    7  -3  -3
3.38    1.42    7  -3  -3    4.19    2.33   -7   3   3    5.04    1.92
-7   3   3    1.72    1.54   -7   3   3    5.25    1.41    6  -3  -3
1.94    2.05    6  -3  -3    0.19    0.90   -6   3   3   -0.21    0.79
-6   3   3   -0.37    1.14   -6   3   3   -0.44    1.14    5  -3  -3
39.69    2.86    5  -3  -3   37.47    4.22   -5   3   3   32.46
3.11   -5   3   3   35.35    3.44   -5   3   3   40.45    2.59    4
-3  -3   83.96    4.06    4  -3  -3   86.75    3.86    4  -3  -3
90.82    5.63   -4   3   3   82.36    4.43   -4   3   3   83.45
3.73   -4   3   3   87.22    3.68   -4   3   3   83.72    4.77    3
-3  -3  216.29    6.94    3  -3  -3  207.23    8.59    3  -3  -3
200.91    7.90    3  -3  -3  213.08    7.09   -3   3   3  203.33
7.96   -3   3   3  211.33    7.05   -3   3   3  211.54    7.53   -3
3   3  214.59    8.21   -3   3   3  200.91    6.72    2  -3  -3
389.24   11.47    2  -3  -3  397.47   11.48    2  -3  -3  399.48
13.30   -2   3   3  410.35   11.49   -2   3   3  388.47   11.92   -2
3   3  405.76   12.29   -2   3   3  396.22   13.08   -2   3   3
397.96   13.00   -2   3   3  401.87   11.26    1  -3  -3  170.58
6.08    1  -3  -3  165.49    6.55    1  -3  -3  173.09    5.29    1
-3  -3  172.59    5.59   -1   3   3  164.67    5.26   -1   3   3
163.99    6.30   -1   3   3  170.18    6.07   -1   3   3  178.41
5.32    0  -3  -3  131.53    5.27    0  -3  -3  123.53    4.23    0
-3  -3  129.71    5.09    0   3   3  133.01    4.01    0   3   3
124.57    5.17    0   3   3  124.37    3.93    0   3   3  125.55
5.20    0   3   3  126.73    5.01    0   3   3  123.75    3.88    0
3   3  128.41    4.94   -1  -3  -3  395.61   12.59   -1  -3  -3
384.85   10.55   -1  -3  -3  396.44   10.59   -1  -3  -3  395.92
12.55    1   3   3  398.79   12.40    1   3   3  390.47   12.47    1
3   3  395.54   12.05    1   3   3  378.56   12.48    1   3   3
393.29   10.77   -2  -3  -3  330.40    8.68   -2  -3  -3  311.87
10.95    2   3   3  328.46   10.01    2   3   3  329.44   10.62    2
3   3  306.08   10.78    2   3   3  336.02    9.44   -3  -3  -3
435.04   11.26   -3  -3  -3  422.95   14.44    3   3   3  430.70
14.24    3   3   3  448.97   12.99    3   3   3  448.57   12.77    3
3   3  440.16   13.85   -4  -3  -3  320.42   11.78   -4  -3  -3
318.89    8.35    4   3   3  303.28   10.92    4   3   3  323.17
11.48    4   3   3  329.27   10.29    4   3   3  330.33    9.74   -5
-3  -3  131.25    3.80   -5  -3  -3  129.70    6.62   -5  -3  -3
129.54    4.90    5   3   3  126.87    6.35    5   3   3  124.52
5.93    5   3   3  127.60    5.52    5   3   3  133.05    4.42   -6
-3  -3   85.37    4.17   -6  -3  -3   82.05    5.62    6   3   3
92.02    3.14    6   3   3   94.95    3.12    6   3   3   97.38
4.94    6   3   3   82.70    4.97    6   3   3   83.35    5.35   -7
-3  -3   45.78    4.63   -7  -3  -3   42.64    3.09    7   3   3
34.41    3.62    7   3   3   34.79    3.36    7   3   3   47.39
4.39   -8  -3  -3    3.67    2.28   -8  -3  -3    4.14    1.46    8
3   3    3.11    1.66    8   3   3    1.15    1.59    8   3   3
3.06    1.56   -9  -3  -3   19.13    4.02   -9  -3  -3   21.04    2.82
9   3   3   26.22    4.27    9   3   3   20.25    3.19    9   3   3
27.51    3.71  -10  -3  -3    9.30    2.32   10   3   3    7.13
2.35   10   3   3    2.58    1.78   10   3   3    9.76    2.94  -11
-3  -3    0.15    1.60   11   3   3    0.86    1.68   11   3   3
3.77    2.15   11   3   3   -0.63    1.75  -12  -3  -3   17.27    3.93
12   3   3   15.34    3.66   12   3   3   18.44    3.76   12   3   3
11.52    3.68   10  -4  -3   10.73    3.79   10  -4  -3    8.05
2.77  -10   4   3   13.70    3.43  -10   4   3   13.49    3.53    9
-4  -3    3.78    1.76    9  -4  -3    7.52    3.12   -9   4   3
7.73    2.52   -9   4   3    4.67    2.33    8  -4  -3    0.23    2.16
8  -4  -3    2.28    1.51   -8   4   3    1.91    1.25   -8   4   3
1.36    1.67   -8   4   3   -0.31    1.47    7  -4  -3   17.21    3.61
7  -4  -3   20.90    2.84   -7   4   3   15.92    2.90   -7   4   3
22.71    2.48   -7   4   3   22.11    3.46    6  -4  -3   -0.25
0.84    6  -4  -3    1.16    1.94   -6   4   3    0.29    1.20   -6
4   3    0.26    0.88   -6   4   3    0.70    1.40    5  -4  -3
1.20    1.02    5  -4  -3    0.89    1.76    5  -4  -3   -0.62    0.80
-5   4   3   -0.52    0.75   -5   4   3    1.55    1.38   -5   4   3
0.75    1.10    4  -4  -3    1.38    1.07    4  -4  -3    3.66    1.17
4  -4  -3    2.17    1.86   -4   4   3    2.01    1.43   -4   4   3
1.04    1.06   -4   4   3    2.25    1.14   -4   4   3    4.38    1.13
-4   4   3    1.38    0.94    3  -4  -3   20.94    2.77    3  -4  -3
26.22    1.75    3  -4  -3   25.41    2.03    3  -4  -3   30.08
2.21    3  -4  -3   25.42    2.56   -3   4   3   27.08    2.86   -3
4   3   25.26    1.73   -3   4   3   27.48    2.48   -3   4   3
24.94    2.52   -3   4   3   24.30    1.94   -3   4   3   27.36
2.15    2  -4  -3   65.50    3.16    2  -4  -3   66.64    3.96    2
-4  -3   71.61    3.24    2  -4  -3   70.55    3.21   -2   4   3
70.76    4.16   -2   4   3   69.45    3.17   -2   4   3   65.10
3.03   -2   4   3   71.76    3.22   -2   4   3   68.42    3.79    1
-4  -3  174.94    5.93    1  -4  -3  180.28    5.88    1  -4  -3
177.38    6.94    1  -4  -3  184.63    6.48   -1   4   3  171.09
6.85   -1   4   3  178.23    5.98   -1   4   3  172.06    6.37   -1
4   3  172.56    7.05   -1   4   3  183.58    5.88   -1   4   3
171.92    5.67    0  -4  -3  187.90    7.00    0  -4  -3  196.23
6.95    0  -4  -3  175.49    5.93    0   4   3  173.97    5.60    0
4   3  194.61    7.32    0   4   3  188.22    5.90    0   4   3
179.96    6.88    0   4   3  182.31    6.93   -1  -4  -3  198.09
7.27   -1  -4  -3  195.30    6.07   -1  -4  -3  190.79    7.34    1
4   3  197.72    6.13    1   4   3  195.29    5.54    1   4   3
195.04    7.36    1   4   3  191.77    7.17    1   4   3  190.11
7.03   -2  -4  -3   46.70    2.08   -2  -4  -3   48.13    3.18    2
4   3   44.00    2.93    2   4   3   43.84    2.60    2   4   3
49.43    2.38    2   4   3   45.14    2.95   -3  -4  -3   16.45
1.17   -3  -4  -3   16.68    2.30    3   4   3   14.49    1.51    3
4   3   15.26    1.54    3   4   3   19.37    2.08    3   4   3
14.25    1.87   -4  -4  -3   21.94    2.80   -4  -4  -3   24.94
1.42    4   4   3   25.23    2.11    4   4   3   17.64    2.19    4
4   3   19.37    1.78    4   4   3   21.87    2.53   -5  -4  -3
12.05    2.55   -5  -4  -3   19.13    1.64   -5  -4  -3   19.85
1.34    5   4   3   15.06    2.38    5   4   3   19.71    2.20    5
4   3   10.89    1.94   -6  -4  -3   42.13    2.65   -6  -4  -3
40.17    4.26    6   4   3   39.42    3.83    6   4   3   42.24
3.35    6   4   3   37.81    3.49   -7  -4  -3   24.02    3.97   -7
-4  -3   24.72    2.35    7   4   3   25.81    2.93    7   4   3
24.18    3.46    7   4   3   27.92    3.31   -8  -4  -3    4.32
2.56    8   4   3    6.64    2.25    8   4   3    5.65    1.87    8
4   3    2.97    1.56    8   4   3    7.27    0.93   -9  -4  -3
2.42    2.68    9   4   3    1.26    1.31    9   4   3    1.47    1.57
9   4   3    4.57    2.27  -10  -4  -3    4.96    3.20   10   4   3
-0.39    1.22   10   4   3    1.58    1.57   10   4   3   -0.18
1.66   11   4   3    1.68    1.88   11   4   3    1.61    1.91   11
4   3   -0.60    1.51  -12  -4  -3   -0.80    1.77   12   4   3
-1.22    1.87   12   4   3    1.37    2.01   12   4   3    0.11
1.76   10  -5  -3   34.64    4.55  -10   5   3   34.30    4.65  -10
5   3   34.71    5.03  -10   5   3   27.49    4.90    9  -5  -3
28.79    3.91   -9   5   3   21.94    3.56   -9   5   3   32.04
4.78   -9   5   3   18.19    3.58    8  -5  -3   12.97    3.40    8
-5  -3   17.11    2.96   -8   5   3    8.97    2.77   -8   5   3
19.55    3.40   -8   5   3   16.48    2.94    7  -5  -3    6.06
2.66    7  -5  -3    9.71    2.19   -7   5   3   19.40    3.24   -7
5   3    8.75    2.56   -7   5   3   11.09    2.36   -7   5   3
10.48    1.96    6  -5  -3    4.01    1.47    6  -5  -3    4.02
2.32   -6   5   3    5.84    1.63   -6   5   3    5.51    1.87   -6
5   3    2.88    1.73   -6   5   3    8.52    1.67    5  -5  -3
-1.24    1.63    5  -5  -3    0.73    1.06   -5   5   3   -0.96
1.20   -5   5   3    0.53    1.28   -5   5   3    0.89    1.09   -5
5   3    0.97    0.98    4  -5  -3    6.05    1.54    4  -5  -3
7.75    1.37    4  -5  -3    0.67    1.27   -4   5   3    7.39    1.85
-4   5   3    6.22    1.36   -4   5   3    6.48    1.76   -4   5   3
5.97    1.92   -4   5   3    7.70    1.64    3  -5  -3   11.00    1.54
3  -5  -3   15.10    1.84   -3   5   3   13.50    2.16   -3   5   3
11.71    1.59   -3   5   3   15.56    1.84   -3   5   3   11.88
1.27   -3   5   3    5.94    1.91   -3   5   3    8.59    1.76    2
-5  -3   30.69    2.30    2  -5  -3   32.21    2.78    2  -5  -3
32.46    2.23    2  -5  -3   32.88    2.17   -2   5   3   34.37
2.40   -2   5   3   28.47    2.76   -2   5   3   33.63    2.22   -2
5   3   33.73    3.32    1  -5  -3  288.67   10.12    1  -5  -3
294.32    9.73    1  -5  -3  279.19    9.11    1  -5  -3  292.35
8.96   -1   5   3  285.49   10.60   -1   5   3  294.83    9.12   -1
5   3  301.96    9.24   -1   5   3  282.69    8.79   -1   5   3
263.81   10.21    0  -5  -3  333.43    9.95    0  -5  -3  327.35
11.18    0   5   3  325.39    9.59    0   5   3  335.11   11.44    0
5   3  334.55   10.07    0   5   3  334.49   11.13    0   5   3
313.69   11.54   -1  -5  -3  311.14   10.33   -1  -5  -3  290.74
10.59   -1  -5  -3  302.73    9.09    1   5   3  304.71   10.73    1
5   3  284.52   10.32    1   5   3  296.38    8.56    1   5   3
319.69    9.36    1   5   3  291.88   10.24   -2  -5  -3  450.30
15.76   -2  -5  -3  479.36   13.24   -2  -5  -3  485.40   15.33    2
5   3  470.52   15.39    2   5   3  478.48   13.85    2   5   3
476.01   15.24    2   5   3  488.75   12.40    2   5   3  458.10
12.37    2   5   3  463.48   15.06   -3  -5  -3  263.18    8.08    3
5   3  262.70    9.89    3   5   3  271.76    8.81    3   5   3
266.83    9.53    3   5   3  276.43    9.99   -4  -5  -3  101.45
5.98   -4  -5  -3  108.18    4.01    4   5   3  104.26    5.31    4
5   3  104.11    5.50    4   5   3  108.57    4.78   -5  -5  -3
78.00    5.54   -5  -5  -3   88.87    3.53    5   5   3   78.54
4.75    5   5   3   86.26    4.40    5   5   3   78.79    4.97   -6
-5  -3  193.25    6.42   -6  -5  -3  198.47    9.80    6   5   3
190.02    7.88    6   5   3  187.13    8.69    6   5   3  181.24
8.22   -7  -5  -3  253.25   12.17    7   5   3  252.04   11.07    7
5   3  236.81    9.72    7   5   3  248.10   10.41   -8  -5  -3
129.46    8.81    8   5   3  135.00    7.90    8   5   3  129.79
6.79    8   5   3  122.45    7.09   -9  -5  -3   37.51    5.62    9
5   3   41.01    4.97    9   5   3   34.26    4.23    9   5   3
33.50    3.95   10   5   3   30.31    4.81   10   5   3   32.97
4.35   10   5   3   37.44    4.47   11   5   3    4.40    2.58   11
5   3    8.27    2.71   11   5   3    3.31    2.05   12   5   3
-1.72    1.85   12   5   3    2.69    2.32    9  -6  -3    5.95
2.47   -9   6   3    5.54    2.52   -9   6   3    5.05    2.33    8
-6  -3   12.09    2.74   -8   6   3   11.86    2.78   -8   6   3
10.13    3.05   -8   6   3   14.46    3.15    7  -6  -3    5.21
1.91   -7   6   3    1.10    1.47   -7   6   3    2.99    1.35   -7
6   3    0.92    1.54   -7   6   3    1.37    1.76    6  -6  -3
4.29    1.61   -6   6   3    3.98    1.65   -6   6   3    1.01    1.56
-6   6   3    2.15    1.31   -6   6   3    3.07    1.67    5  -6  -3
0.15    1.82    5  -6  -3    1.08    1.19   -5   6   3    1.82    1.29
-5   6   3   -0.11    1.17   -5   6   3   -0.44    1.31   -5   6   3
-0.80    0.85    4  -6  -3    0.68    1.04    4  -6  -3   -0.53
1.75    4  -6  -3    0.83    0.98   -4   6   3    1.41    1.09   -4
6   3    0.01    0.96   -4   6   3    0.87    1.00   -4   6   3
0.46    1.34    3  -6  -3    3.82    1.28    3  -6  -3    3.38    1.17
3  -6  -3    6.02    2.08   -3   6   3    6.34    1.52   -3   6   3
6.82    1.45   -3   6   3    8.59    2.01   -3   6   3    5.73    1.58
-3   6   3    6.48    2.00    2  -6  -3    1.44    1.37    2  -6  -3
0.38    0.89    2  -6  -3   -0.32    0.81    2  -6  -3   -0.30    0.88
-2   6   3    2.55    1.47   -2   6   3    0.30    0.86   -2   6   3
1.72    1.08   -2   6   3    0.02    0.80   -2   6   3   -1.49    0.64
1  -6  -3    2.22    0.92    1  -6  -3    0.37    0.97    1  -6  -3
0.68    0.90   -1   6   3   -0.22    0.98   -1   6   3    0.68    0.76
-1   6   3    0.78    0.90   -1   6   3    0.63    0.81   -1   6   3
0.48    0.89    0  -6  -3    5.31    1.15    0  -6  -3    8.30    1.57
0  -6  -3    6.62    1.55    0  -6  -3    6.44    1.14    0   6   3
10.44    1.73    0   6   3    6.83    1.72    0   6   3    5.22
1.10    0   6   3    6.48    1.13    0   6   3    6.04    1.54    0
6   3    4.40    1.17   -1  -6  -3   23.09    2.64   -1  -6  -3
26.25    2.32   -1  -6  -3   23.60    1.93    1   6   3   20.54
2.37    1   6   3   28.59    2.21    1   6   3   23.70    2.29    1
6   3   20.16    2.56    1   6   3   26.30    1.81   -2  -6  -3
1.05    0.69   -2  -6  -3    0.77    0.89   -2  -6  -3   -0.86    1.08
2   6   3   -0.19    0.51    2   6   3    1.69    1.03    2   6   3
1.75    0.87    2   6   3    1.08    0.94    2   6   3    1.80    1.08
-3  -6  -3    0.06    1.30   -3  -6  -3    0.25    0.61   -3  -6  -3
1.41    0.75    3   6   3    2.60    1.16    3   6   3    0.00    0.76
3   6   3    0.76    0.92    3   6   3    0.41    0.38   -4  -6  -3
1.12    1.55   -4  -6  -3   -0.11    0.67    4   6   3    1.43    1.17
4   6   3   -0.57    0.75    4   6   3    1.50    1.04   -5  -6  -3
1.99    1.85   -5  -6  -3    0.30    0.72    5   6   3   -0.24    0.80
5   6   3   -0.79    1.05    5   6   3    1.66    1.09   -6  -6  -3
1.91    0.92   -6  -6  -3   -0.26    1.95    6   6   3    0.37    1.36
6   6   3    1.50    1.20    6   6   3    0.90    1.11   -7  -6  -3
7.04    2.92   -7  -6  -3   13.21    1.68    7   6   3   12.64    2.48
7   6   3   10.96    2.54    7   6   3   12.64    2.42   -8  -6  -3
1.13    2.44    8   6   3    1.66    1.66    8   6   3    0.93    1.23
8   6   3    2.90    1.50   -9  -6  -3   -2.31    2.33    9   6   3
-0.26    1.60    9   6   3    0.19    1.22    9   6   3   -0.72
1.17   10   6   3    1.48    1.74   10   6   3   -1.16    1.53   10
6   3    1.22    1.70   11   6   3    2.16    2.41   11   6   3
1.66    1.94   11   6   3    0.55    1.75   -9   7   3   73.49    6.81
-9   7   3   61.63    6.87   -8   7   3   66.12    6.00   -8   7   3
51.34    5.99    7  -7  -3   24.96    3.49   -7   7   3   20.39
3.31   -7   7   3   19.71    3.52   -7   7   3   19.15    3.94    6
-7  -3   30.23    3.54   -6   7   3   27.36    2.92   -6   7   3
30.84    3.51   -6   7   3   29.75    4.34   -6   7   3   33.50
4.06    5  -7  -3   20.95    2.92   -5   7   3   23.95    3.94   -5
7   3   15.64    2.82   -5   7   3   22.95    2.56   -5   7   3
12.96    2.41    4  -7  -3   30.40    3.11   -4   7   3   36.44
3.51   -4   7   3   30.89    2.83   -4   7   3   33.34    3.19   -4
7   3   33.02    4.13    3  -7  -3   15.58    1.79    3  -7  -3
18.76    2.43   -3   7   3   17.02    2.34   -3   7   3   16.62
3.12   -3   7   3   15.68    2.39   -3   7   3   16.69    2.08    2
-7  -3    1.61    1.06    2  -7  -3    1.38    1.17   -2   7   3
-0.75    0.82   -2   7   3    1.18    1.30   -2   7   3    1.54
1.35   -2   7   3   -0.59    0.98   -2   7   3    0.10    0.87    1
-7  -3   20.66    2.44    1  -7  -3   21.86    2.41    1  -7  -3
21.09    2.19    1  -7  -3   19.40    2.00   -1   7   3   19.99
2.95   -1   7   3   18.92    1.99   -1   7   3   14.86    2.47   -1
7   3   21.13    2.20   -1   7   3   21.34    2.37    0  -7  -3
76.80    4.22    0  -7  -3   75.24    3.72    0  -7  -3   79.95
3.76    0  -7  -3   68.16    4.46    0   7   3   74.12    4.02    0
7   3   74.98    3.64    0   7   3   79.19    4.29    0   7   3
76.77    4.97    0   7   3   80.59    4.77   -1  -7  -3   78.80
5.01   -1  -7  -3   75.10    3.77   -1  -7  -3   79.27    4.34    1
7   3   80.95    4.84    1   7   3   87.22    4.45    1   7   3
82.59    3.66    1   7   3   74.45    4.85    1   7   3   86.46
4.29   -2  -7  -3   35.44    2.47   -2  -7  -3   37.51    2.90   -2
-7  -3   37.95    3.77    2   7   3   41.34    3.51    2   7   3
34.58    2.17    2   7   3   40.90    2.85    2   7   3   41.20
3.76    2   7   3   33.97    2.94   -3  -7  -3  134.47    7.48   -3
-7  -3  146.67    5.57    3   7   3  137.36    6.92    3   7   3
146.09    6.61    3   7   3  139.33    4.62    3   7   3  141.95
6.06   -4  -7  -3  152.95    8.39   -4  -7  -3  158.97    5.98    4
7   3  157.34    6.65    4   7   3  166.78    7.67    4   7   3
142.48    7.07   -5  -7  -3  110.10    4.80   -5  -7  -3  119.56
7.65    5   7   3  108.74    6.17    5   7   3  117.94    5.70    5
7   3  113.83    6.33   -6  -7  -3  144.03    9.04   -6  -7  -3
163.29    6.11    6   7   3  142.87    7.52    6   7   3  145.54
7.75    6   7   3  146.27    6.99   -7  -7  -3   84.97    4.37   -7
-7  -3   77.08    7.29    7   7   3   88.92    6.08    7   7   3
97.28    5.89    7   7   3   90.81    5.46   -8  -7  -3  124.80
8.97    8   7   3  105.70    6.35    8   7   3  104.24    7.10    8
7   3  102.04    6.59    9   7   3   75.16    5.53    9   7   3
72.19    5.72    9   7   3   75.87    6.57   10   7   3   74.59
7.02   10   7   3   77.21    6.64   10   7   3   82.14    6.00   11
7   3   70.77    7.23   11   7   3   64.27    6.12   11   7   3
70.82    6.65   -8   8   3    1.29    1.99   -8   8   3    2.99
2.51   -7   8   3   -0.64    1.61   -7   8   3    0.30    2.02   -6
8   3    2.42    2.05   -6   8   3   -0.09    1.53    5  -8  -3
0.64    1.39   -5   8   3    0.13    1.62   -5   8   3   -0.95    1.08
-5   8   3    2.89    1.79   -5   8   3    0.52    1.44    4  -8  -3
11.09    2.26   -4   8   3    7.95    2.55   -4   8   3    6.61
1.94   -4   8   3    7.31    2.12   -4   8   3    8.13    1.89    3
-8  -3    5.40    1.66   -3   8   3    4.48    1.94   -3   8   3
1.18    1.24   -3   8   3    4.96    1.48   -3   8   3    5.96    1.77
2  -8  -3    6.08    1.41   -2   8   3    4.11    1.55   -2   8   3
5.36    1.65   -2   8   3    5.25    1.47   -2   8   3    6.13    2.06
1  -8  -3    2.63    1.24   -1   8   3    5.42    1.86   -1   8   3
1.84    1.12   -1   8   3    3.31    1.41   -1   8   3    4.23    1.87
0  -8  -3   21.02    2.90    0  -8  -3   21.45    2.19    0   8   3
26.73    2.69    0   8   3   20.44    3.13    0   8   3   22.31
3.01    0   8   3   18.63    2.09   -1  -8  -3   19.39    2.98   -1
-8  -3   17.19    2.02    1   8   3   19.37    2.38    1   8   3
18.78    2.78    1   8   3   22.30    2.06    1   8   3   20.13
2.99    1   8   3   19.37    2.38   -2  -8  -3   -1.69    1.37   -2
-8  -3    1.99    0.98   -2  -8  -3    4.34    1.38    2   8   3
2.21    1.48    2   8   3    3.69    1.31    2   8   3    1.25    1.30
2   8   3    3.42    1.45    2   8   3    1.52    0.88   -3  -8  -3
14.89    3.12   -3  -8  -3   11.79    2.11   -3  -8  -3   12.41
1.75    3   8   3    9.16    1.29    3   8   3   12.34    2.20    3
8   3   11.80    2.48    3   8   3   13.86    2.13   -4  -8  -3
25.79    2.37   -4  -8  -3   23.94    4.11    4   8   3   30.53
2.98    4   8   3   30.41    3.54    4   8   3   28.94    3.17   -5
-8  -3   48.59    5.48   -5  -8  -3   46.63    3.12    5   8   3
49.83    4.46    5   8   3   50.36    4.25    5   8   3   45.62
3.79   -6  -8  -3   32.71    5.16   -6  -8  -3   32.18    2.73    6
8   3   39.09    3.63    6   8   3   38.33    4.16    6   8   3
38.74    4.12   -7  -8  -3   12.60    1.97   -7  -8  -3   15.74
4.02    7   8   3   14.75    2.84    7   8   3   11.88    2.91    7
8   3   12.63    2.45   -8  -8  -3   27.43    2.77    8   8   3
31.87    3.87    8   8   3   30.01    4.02    8   8   3   34.35
4.50    9   8   3   33.43    4.84    9   8   3   29.07    3.94    9
8   3   31.08    4.32   10   8   3   37.97    5.36   10   8   3
19.00    3.52   10   8   3   22.04    3.99   11   8   3   23.26
4.21   11   8   3   16.70    4.13   11   8   3   23.61    4.41   -7
9   3   87.21    7.00   -7   9   3   76.57    7.51   -6   9   3
49.54    6.06   -6   9   3   57.43    5.47   -5   9   3   55.24
5.04   -5   9   3   57.03    6.16   -4   9   3   21.07    3.20   -4
9   3   17.12    3.57   -4   9   3   25.28    2.99    3  -9  -3
18.91    2.96   -3   9   3   15.93    3.28   -3   9   3   13.42
2.22    2  -9  -3   48.76    2.96   -2   9   3   44.40    3.27   -2
9   3   45.27    3.91   -2   9   3   54.48    5.22    1  -9  -3
37.57    2.82   -1   9   3   28.99    4.00   -1   9   3   35.49
2.95   -1   9   3   37.01    3.44    0  -9  -3    3.92    1.34    0
9   3    4.61    1.64    0   9   3    5.66    2.05    0   9   3
6.95    1.59    0   9   3    3.68    1.70   -1  -9  -3    1.53    1.01
-1  -9  -3    2.05    1.85    1   9   3    0.48    0.93    1   9   3
0.36    1.27    1   9   3    0.60    1.12    1   9   3    0.66    1.05
-2  -9  -3   13.93    1.96   -2  -9  -3   12.59    3.26    2   9   3
25.92    3.46    2   9   3   13.23    1.76    2   9   3   16.43
2.90    2   9   3   19.68    2.58   -3  -9  -3   34.43    4.59   -3
-9  -3   38.58    2.97    3   9   3   37.01    4.09    3   9   3
39.62    2.50    3   9   3   35.06    3.38   -4  -9  -3   51.62
5.75   -4  -9  -3   51.82    3.38    4   9   3   53.35    4.74    4
9   3   58.44    4.25    4   9   3   51.59    3.89   -5  -9  -3
31.91    2.82   -5  -9  -3   34.70    5.17    5   9   3   24.83
3.12    5   9   3   26.80    3.65    5   9   3   23.03    3.32   -6
-9  -3   18.08    4.34   -6  -9  -3   14.82    2.20   -6  -9  -3
15.12    2.20    6   9   3   17.16    3.02    6   9   3   21.38
3.02    6   9   3   12.56    2.75   -7  -9  -3   61.41    3.96    7
9   3   57.15    5.38    7   9   3   58.07    5.32    7   9   3
62.98    5.06    8   9   3   46.94    5.22    8   9   3   44.91
4.89    8   9   3   37.90    4.28    9   9   3   44.89    4.97    9
9   3   50.64    5.82    9   9   3   58.73    5.79   10   9   3
33.45    5.25   10   9   3   27.11    4.22   10   9   3   37.43
5.01   -6  10   3   33.22    5.48   -6  10   3   24.95    4.24   -5
10   3   42.01    5.69   -4  10   3   15.29    3.56   -3  10   3
2.45    1.73   -2  10   3   13.91    2.25   -2  10   3    9.47    2.73
1 -10  -3   38.86    2.85   -1  10   3   39.21    4.73   -1  10   3
46.20    3.38    0 -10  -3   14.38    2.02    0  10   3   16.70
2.73    0  10   3   12.95    2.05    0  10   3   10.63    2.56   -1
-10  -3    0.04    0.94    1  10   3    0.01    0.99    1  10   3
-0.90    0.95    1  10   3    0.39    1.23    1  10   3   -1.60
1.25   -2 -10  -3   10.82    3.12   -2 -10  -3   11.65    1.97    2
10   3   10.80    2.59    2  10   3    8.88    2.15    2  10   3
10.38    1.74    2  10   3   10.13    2.60   -3 -10  -3    2.22
2.48   -3 -10  -3    3.76    1.35    3  10   3    5.94    1.89    3
10   3    1.62    1.52    3  10   3    3.58    1.81    3  10   3
2.36    1.11   -4 -10  -3   26.69    4.85   -4 -10  -3   23.55    2.60
4  10   3   15.97    3.00    4  10   3   15.28    2.65   -5 -10  -3
12.08    2.00   -5 -10  -3    9.26    3.63    5  10   3   10.70
2.52    5  10   3    8.64    2.38    6  10   3    3.79    2.11    6
10   3    3.63    1.80    6  10   3    8.14    2.42    7  10   3
33.74    4.04    7  10   3   31.22    4.32    7  10   3   32.32
4.28    8  10   3   36.39    4.40    8  10   3   36.43    4.71    8
10   3   41.13    5.10    9  10   3   51.31    5.95    9  10   3
52.33    5.39    9  10   3   55.23    5.91   -5  11   3   38.06
5.54   -4  11   3   40.16    5.58   -3  11   3   26.83    4.52   -2
11   3   29.01    4.56   -1  11   3   10.17    2.89    0 -11  -3
9.63    1.82    0  11   3    7.15    2.38   -1 -11  -3   15.77    2.22
1  11   3   13.26    2.17    1  11   3    9.91    2.64   -2 -11  -3
8.71    1.81    2  11   3   13.76    3.16    2  11   3   18.30    3.47
2  11   3    9.28    1.84   -3 -11  -3    1.49    2.55    3  11   3
0.46    1.66    3  11   3    0.83    1.51    3  11   3    0.39    1.04
3  11   3   -0.04    1.40   -4 -11  -3    3.03    2.71    4  11   3
1.51    1.71    4  11   3    3.96    1.80    5  11   3    7.91    2.32
5  11   3    4.74    2.18    6  11   3   11.36    2.94    6  11   3
6.46    2.31    7  11   3    7.97    2.64    7  11   3    4.08    2.12
8  11   3    7.01    2.61    8  11   3    7.17    2.70    9  11   3
5.74    2.69    9  11   3    2.71    2.21   -4  12   3   64.99    7.13
-3  12   3   58.46    6.68   -2  12   3   54.30    6.20   -1  12   3
59.83    6.15    0  12   3   35.34    4.91    1  12   3   25.47
4.26    2  12   3   31.23    4.59    3  12   3   26.63    4.34    4
12   3   10.64    3.03    5  12   3    1.71    1.83    6  12   3
0.78    1.69    7  12   3    9.13    2.89    7  12   3    5.21    2.47
8  12   3   13.29    3.41    8  12   3   10.22    3.24   -2  13   3
-0.61    1.64   -1  13   3    5.99    2.89    0  13   3    3.90
2.42    1  13   3   -0.72    1.58    2  13   3    0.77    1.87    3
13   3   -0.26    1.61    4  13   3    2.10    2.09    5  13   3
0.87    1.84    6  13   3    4.66    2.55    1  14   3   60.01    6.70
2  14   3   61.40    6.73    3  14   3   39.49    5.54    3  13  -4
0.65    2.69    3  13  -4    0.71    2.11   -3 -13   4    2.70    2.04
2  13  -4   -0.13    1.84    2  13  -4   -0.80    2.43   -2 -13   4
0.26    1.69    1  13  -4    4.70    2.58    1  13  -4    9.35    3.90
-1 -13   4    3.75    2.32    0  13  -4   14.35    3.64    0  13  -4
16.00    4.52    0 -13   4   16.38    3.46   -1  13  -4   44.61
5.85   -1  13  -4   50.49    7.11    1 -13   4   59.37    5.88    6
12  -4   18.91    4.15    5  12  -4    3.47    2.45   -5 -12   4
7.39    2.58    4  12  -4   -1.04    2.26    4  12  -4    3.84    2.36
-4 -12   4    4.82    2.32    3  12  -4    1.89    2.50    3  12  -4
-0.10    1.57   -3 -12   4   -0.43    1.53    2  12  -4    1.57
2.02    2  12  -4   -1.90    1.85   -2 -12   4   -2.02    1.43    1
12  -4   -0.97    2.16    1  12  -4    2.38    2.12   -1 -12   4
0.60    1.66    0  12  -4    5.48    2.53    0  12  -4    6.47    3.28
0 -12   4    2.36    1.85   -1  12  -4   -0.19    1.86   -1  12  -4
3.51    2.73    1 -12   4    0.95    1.77   -2  12  -4    0.18    2.43
-2  12  -4    0.69    1.92   -2  12  -4    0.18    1.84    2 -12   4
3.45    2.19   -3  12  -4   11.68    3.04   -3  12  -4   -0.53    2.51
-3  12  -4    4.63    2.69    3 -12   4    7.77    2.72   -4  12  -4
3.48    2.36    4 -12   4    5.98    2.49    7  11  -4   36.34    5.33
-7 -11   4   38.43    4.87    6  11  -4   45.98    5.56   -6 -11   4
51.67    5.28    5  11  -4   59.01    6.14   -5 -11   4   76.29
5.74    4  11  -4   24.91    4.66    4  11  -4   26.50    4.34   -4
-11   4   21.84    3.62    3  11  -4    4.32    2.65    3  11  -4
8.50    2.65   -3 -11   4    3.22    2.15   -3 -11   4    6.51    2.31
2  11  -4    1.38    1.78    2  11  -4   -0.18    2.04   -2 -11   4
-0.43    1.34    1  11  -4   -0.41    1.64    1  11  -4   -1.21
2.00    1  11  -4    0.03    1.33   -1 -11   4    2.25    1.62    0
11  -4   -2.51    1.58    0  11  -4   -0.55    1.52    0  11  -4
-0.48    1.54    0 -11   4   -0.50    1.37   -1  11  -4   -3.67
1.76   -1  11  -4    3.60    2.01    1 -11   4    2.88    1.77   -2
11  -4   11.64    3.16   -2  11  -4   23.22    4.94    2 -11   4
18.38    3.36   -3  11  -4   45.96    5.50   -3  11  -4   42.27
6.13   -3  11  -4   51.11    5.49    3 -11   4   41.21    4.98   -4
11  -4   44.17    6.37   -4  11  -4   46.88    5.67   -4  11  -4
41.50    5.24    4 -11   4   46.91    5.44   -5  11  -4   44.64
5.64   -5  11  -4   50.19    6.14    5 -11   4   56.53    5.95    8
10  -4    6.38    2.66   -8 -10   4    4.43    2.24    7  10  -4
1.03    1.79   -7 -10   4    2.17    1.81    6  10  -4    1.13    1.73
-6 -10   4   -0.17    1.38    5  10  -4    2.11    1.90   -5 -10   4
1.41    1.51    4  10  -4    9.31    3.02    4  10  -4    3.12    2.02
-4 -10   4    3.56    2.41   -4 -10   4    2.72    1.69    3  10  -4
4.56    1.97    3  10  -4    0.94    1.90    3  10  -4    1.75    1.67
-3 -10   4    2.71    1.60   -3 -10   4    2.70    1.97    2  10  -4
0.79    1.37    2  10  -4   -1.80    1.35    2  10  -4    2.66    2.36
-2 -10   4   -0.75    1.22   -2 -10   4   -0.27    1.17    1  10  -4
-1.23    1.52    1  10  -4    1.26    1.44    1  10  -4   -1.54
1.81   -1 -10   4    2.08    1.45    0  10  -4    1.07    1.46    0
10  -4    3.47    2.43    0  10  -4   -1.39    1.53    0 -10   4
1.64    1.50   -1  10  -4    2.23    2.41   -1  10  -4    7.59    2.37
1 -10   4   10.66    2.76   -2  10  -4   -0.79    1.85   -2  10  -4
0.07    1.42    2 -10   4    1.26    1.53   -3  10  -4    5.23    2.26
-3  10  -4    4.36    2.69   -3  10  -4    3.50    2.07    3 -10   4
2.67    1.70   -4  10  -4    3.63    2.61   -4  10  -4    1.47    1.79
-4  10  -4    5.72    2.37   -4  10  -4    6.27    2.49    4 -10   4
1.78    1.80    4 -10   4    1.65    1.90   -5  10  -4   -1.13    1.47
-5  10  -4   -1.96    1.95   -5  10  -4    1.87    2.08   -5  10  -4
-0.36    1.86    5 -10   4   -0.52    1.45    5 -10   4    0.75
1.81   -6  10  -4    0.34    2.02   -6  10  -4   -1.56    1.70   -6
10  -4    1.42    1.81    6 -10   4    1.20    1.86    6 -10   4
-1.29    1.41   -9  -9   4   68.66    6.11    8   9  -4   84.38
7.06   -8  -9   4   94.25    6.57    7   9  -4  114.01    7.55   -7
-9   4  109.77    7.14    6   9  -4  156.26    8.60   -6  -9   4
134.25    7.75    5   9  -4   92.91    6.54   -5  -9   4   92.30
6.04   -5  -9   4   98.18    7.52    4   9  -4   67.64    4.88    4
9  -4   59.34    5.34    4   9  -4   75.08    6.19   -4  -9   4
72.38    6.46   -4  -9   4   70.14    5.10    3   9  -4   74.05
5.62    3   9  -4   79.62    6.24    3   9  -4   78.79    5.12   -3
-9   4   85.22    6.26   -3  -9   4   81.00    5.44    2   9  -4
99.16    6.44    2   9  -4   90.46    6.96    2   9  -4  113.60
5.97   -2  -9   4  126.67    7.21   -2  -9   4  109.41    6.34    1
9  -4   39.15    4.90    1   9  -4   37.46    4.14    1   9  -4
38.87    3.60   -1  -9   4   41.20    4.09   -1  -9   4   36.98
3.91    0   9  -4   34.02    3.98    0   9  -4   36.26    4.94    0
9  -4   32.54    3.25    0  -9   4   34.20    3.77   -1   9  -4
7.36    2.23   -1   9  -4    9.10    3.01    1  -9   4   12.24    2.47
-2   9  -4   -0.39    1.23   -2   9  -4    1.64    1.59   -2   9  -4
-0.12    1.94    2  -9   4    1.40    1.43   -3   9  -4    0.99
1.58   -3   9  -4    1.40    1.59   -3   9  -4   -2.19    1.10   -3
9  -4    0.62    1.88    3  -9   4    0.04    1.26   -4   9  -4
8.09    2.53   -4   9  -4    6.48    2.35   -4   9  -4    6.70    2.97
-4   9  -4    7.93    2.45    4  -9   4    7.33    2.39    4  -9   4
7.46    2.46   -5   9  -4   10.53    2.72   -5   9  -4   10.67    2.99
-5   9  -4   11.09    3.34   -5   9  -4   18.67    3.53    5  -9   4
10.58    2.74    5  -9   4   17.82    3.54   -6   9  -4   13.99
3.88   -6   9  -4   22.76    4.13   -6   9  -4   17.95    3.88   -6
9  -4   26.45    4.38    6  -9   4   21.93    4.01    6  -9   4
26.06    4.22   -7   9  -4   25.32    4.58   -7   9  -4   32.68
4.96   -7   9  -4   34.09    5.01    7  -9   4   39.14    5.22    7
-9   4   29.51    4.68    9   8  -4    1.84    2.51    9   8  -4
0.75    1.98   -9  -8   4    2.71    1.78    8   8  -4    7.18    2.54
8   8  -4    3.09    2.36   -8  -8   4    3.86    2.05    7   8  -4
4.80    2.17    7   8  -4    2.22    2.28   -7  -8   4    4.61    1.39
6   8  -4   20.83    3.10    6   8  -4   26.90    3.82   -6  -8   4
20.86    3.39   -6  -8   4   23.65    4.57   -6  -8   4   26.12
2.30    5   8  -4    3.61    1.89    5   8  -4    1.87    1.58   -5
-8   4    1.01    1.29   -5  -8   4    2.78    2.05    4   8  -4
8.21    2.45    4   8  -4    8.63    2.26    4   8  -4    7.62    2.14
-4  -8   4   12.93    3.09   -4  -8   4    6.73    1.88    3   8  -4
9.83    2.73    3   8  -4    8.36    2.22    3   8  -4   11.14    2.42
-3  -8   4    8.53    2.11   -3  -8   4   12.36    2.90    2   8  -4
41.40    4.63    2   8  -4   40.82    4.10    2   8  -4   44.20
3.74   -2  -8   4   38.75    4.24   -2  -8   4   39.78    3.84    1
8  -4    4.81    1.83    1   8  -4    2.82    1.99    1   8  -4
0.37    1.22   -1  -8   4    2.94    1.54   -1  -8   4    2.37    1.52
0   8  -4    4.54    1.68    0   8  -4    4.30    2.30    0   8  -4
3.51    1.64    0  -8   4    3.46    1.47    0  -8   4    1.19    1.15
-1   8  -4    5.77    1.76   -1   8  -4    5.00    1.81   -1   8  -4
4.60    2.35    1  -8   4    4.71    1.74   -2   8  -4   19.69    2.81
-2   8  -4   14.37    2.79   -2   8  -4   15.74    3.66    2  -8   4
14.85    2.78   -3   8  -4    4.48    2.35   -3   8  -4    6.53
2.09   -3   8  -4    2.41    1.55    3  -8   4    4.15    1.78    3
-8   4    4.24    1.83   -4   8  -4    0.11    1.32   -4   8  -4
0.78    1.24   -4   8  -4    4.29    2.26   -4   8  -4    0.60    1.37
4  -8   4    1.54    1.56    4  -8   4    1.50    1.61   -5   8  -4
0.25    1.59   -5   8  -4    1.18    1.49   -5   8  -4    0.91    1.46
-5   8  -4   -2.18    1.72    5  -8   4    2.48    1.64    5  -8   4
0.61    1.35   -6   8  -4    5.30    2.40   -6   8  -4    5.69    2.33
-6   8  -4    9.93    2.75   -6   8  -4    4.88    2.80    6  -8   4
6.79    2.24    6  -8   4    4.32    2.02   -7   8  -4    9.16    2.91
-7   8  -4    6.49    2.62   -7   8  -4    7.24    2.61    7  -8   4
4.46    2.31    7  -8   4    8.20    2.77   -8   8  -4   14.28    3.54
-8   8  -4   19.77    4.12   -8   8  -4   15.59    3.66    8  -8   4
16.08    3.57    8  -8   4   17.15    3.71   10   7  -4   26.91
4.56   10   7  -4   23.11    5.00  -10  -7   4   33.14    4.65    9
7  -4   22.88    4.52    9   7  -4   28.72    4.31   -9  -7   4
29.11    4.17    8   7  -4   43.06    3.72    8   7  -4   31.91
4.79    8   7  -4   34.19    4.41   -8  -7   4   33.38    4.18    7
7  -4   49.01    4.13    7   7  -4   44.57    5.08    7   7  -4
57.83    5.11   -7  -7   4   54.24    3.40   -7  -7   4   51.76
4.76   -7  -7   4   40.36    5.60    6   7  -4   73.51    5.37    6
7  -4   82.69    5.97    6   7  -4   78.88    5.12   -6  -7   4
69.23    5.15   -6  -7   4   88.85    6.98   -6  -7   4   89.20
4.11    5   7  -4  140.23    6.77    5   7  -4  141.17    7.32    5
7  -4  129.47    7.23   -5  -7   4  127.49    8.28   -5  -7   4
135.74    7.00   -5  -7   4  138.68    5.21    4   7  -4  256.24
9.78    4   7  -4  235.09   10.24    4   7  -4  256.11   10.80   -4
-7   4  242.30   10.07   -4  -7   4  223.89   11.30   -4  -7   4
249.01    7.47    3   7  -4  179.73    7.77    3   7  -4  186.76
8.57    3   7  -4  198.56    9.26   -3  -7   4  197.61    8.43   -3
-7   4  184.27    9.37    2   7  -4   85.46    4.72    2   7  -4
73.24    5.02    2   7  -4   91.80    5.95   -2  -7   4   78.97
5.48   -2  -7   4   96.09    5.31    1   7  -4   88.97    6.00    1
7  -4   82.46    4.52    1   7  -4   85.69    5.19   -1  -7   4
82.74    5.17   -1  -7   4   83.69    5.04    0   7  -4   85.54
4.41    0   7  -4   78.66    4.12    0   7  -4   71.18    4.83    0
7  -4   71.80    5.67    0  -7   4   73.62    4.59    0  -7   4
85.50    5.05   -1   7  -4   59.28    4.25   -1   7  -4   43.88
4.58   -1   7  -4   38.99    3.41    1  -7   4   44.02    3.90    1
-7   4   42.81    3.32   -2   7  -4   21.99    3.73   -2   7  -4
30.00    3.55   -2   7  -4   24.72    2.89    2  -7   4   31.59
3.55    2  -7   4   26.07    3.24   -3   7  -4   23.57    3.02   -3
7  -4   23.52    3.27   -3   7  -4   20.76    3.79    3  -7   4
15.25    2.76    3  -7   4   19.50    2.99   -4   7  -4   17.20
2.88   -4   7  -4   21.84    3.81   -4   7  -4   13.59    2.78   -4
7  -4   13.52    2.73    4  -7   4   16.13    2.83    4  -7   4
13.38    2.73   -5   7  -4    3.45    1.91   -5   7  -4    4.61
2.57   -5   7  -4    3.48    1.70   -5   7  -4    4.20    1.86    5
-7   4    3.13    1.80    5  -7   4    5.00    1.97   -6   7  -4
-0.29    1.29   -6   7  -4    0.86    1.46   -6   7  -4   -1.18
1.73   -6   7  -4    1.34    1.73    6  -7   4    1.52    1.59    6
-7   4    1.10    1.60   -7   7  -4    2.54    1.91   -7   7  -4
3.32    2.13   -7   7  -4    6.45    2.50    7  -7   4    4.14    2.10
7  -7   4   11.20    2.67   -8   7  -4   10.54    2.94   -8   7  -4
10.27    2.99   -8   7  -4   11.39    3.28    8  -7   4   13.05
3.32    8  -7   4   12.40    3.09   -9   7  -4   13.74    3.58   -9
7  -4    9.38    3.08   -9   7  -4    4.34    2.89    9  -7   4
6.67    2.72   10   6  -4   22.59    4.82   10   6  -4   19.03    3.79
-10  -6   4   12.64    3.03    9   6  -4    5.50    2.31    9   6  -4
12.00    3.65   -9  -6   4    5.16    2.12    8   6  -4    7.61
2.28    8   6  -4    6.66    2.81    8   6  -4    8.52    2.01   -8
-6   4    3.67    1.82    7   6  -4    3.14    1.74    7   6  -4
0.15    1.87    7   6  -4    1.61    1.57   -7  -6   4    3.53    1.12
-7  -6   4    5.33    1.89   -7  -6   4    7.73    2.72    6   6  -4
22.51    3.61    6   6  -4   18.24    2.83    6   6  -4   20.21
3.11   -6  -6   4   20.46    2.04   -6  -6   4   25.60    3.29   -6
-6   4   21.39    3.88    5   6  -4  153.69    7.48    5   6  -4
158.47    8.11    5   6  -4  151.52    7.06   -5  -6   4  137.44
8.45   -5  -6   4  157.04    7.46   -5  -6   4  156.97    5.68    4
6  -4   86.73    5.27    4   6  -4   88.59    5.00    4   6  -4
79.73    5.39   -4  -6   4   80.86    5.94   -4  -6   4   93.86
5.23   -4  -6   4   89.52    3.52    3   6  -4  213.25    8.84    3
6  -4  216.60    9.20    3   6  -4  207.98    8.17    3   6  -4
209.41    8.74   -3  -6   4  212.48    8.75   -3  -6   4  208.14
9.79    2   6  -4  173.00    8.02    2   6  -4  161.17    7.43    2
6  -4  176.62    6.84   -2  -6   4  166.30    7.32   -2  -6   4
164.63    8.00    1   6  -4   35.28    2.73    1   6  -4   33.81
3.19    1   6  -4   35.60    2.33    1   6  -4   27.95    3.44   -1
-6   4   37.61    3.46   -1  -6   4   32.12    3.10    0   6  -4
14.92    1.79    0   6  -4   13.62    1.74    0   6  -4   13.09
2.31    0   6  -4   12.86    2.68    0  -6   4   12.81    2.29    0
-6   4   16.37    2.30   -1   6  -4   49.47    4.51   -1   6  -4
38.89    2.98   -1   6  -4   42.73    3.62    1  -6   4   42.62
3.58    1  -6   4   43.54    3.16   -2   6  -4   64.91    4.52   -2
6  -4   69.04    4.22   -2   6  -4   69.76    5.56    2  -6   4
82.17    4.88    2  -6   4   83.41    4.19    2  -6   4   74.95
4.72   -3   6  -4  117.43    7.28   -3   6  -4  136.38    6.67   -3
6  -4  121.24    6.18    3  -6   4  129.03    6.52    3  -6   4
114.63    6.30   -4   6  -4   55.90    4.68   -4   6  -4   69.59
5.46   -4   6  -4   59.24    4.53   -4   6  -4   60.18    4.37    4
-6   4   64.81    4.70    4  -6   4   58.64    4.52   -5   6  -4
16.71    2.95   -5   6  -4   17.37    2.92   -5   6  -4   17.61
2.96   -5   6  -4   10.35    2.76    5  -6   4   23.38    3.25    5
-6   4   15.78    2.82   -6   6  -4   -0.25    1.13   -6   6  -4
-1.42    1.60   -6   6  -4    1.54    1.58   -6   6  -4   -0.32
1.16    6  -6   4    0.29    1.34    6  -6   4    0.02    1.10   -7
6  -4    4.77    2.01   -7   6  -4    2.25    1.80   -7   6  -4
3.91    1.70    7  -6   4    1.32    1.54    7  -6   4    3.17    1.80
-8   6  -4    1.37    1.66   -8   6  -4    2.42    2.01   -8   6  -4
1.22    1.68    8  -6   4    5.15    2.21    8  -6   4    3.84    2.04
-9   6  -4    5.24    2.62   -9   6  -4    5.44    2.73   -9   6  -4
8.01    2.73    9  -6   4    6.06    2.53   11   5  -4    0.51    2.43
11   5  -4    1.04    2.06  -11  -5   4    1.47    1.87   10   5  -4
4.58    2.23   10   5  -4    2.76    2.54  -10  -5   4    2.99    1.98
9   5  -4    0.50    2.13    9   5  -4    3.66    1.90   -9  -5   4
-0.23    1.27    8   5  -4   18.81    2.55    8   5  -4   16.89
3.82    8   5  -4   18.85    3.20   -8  -5   4   20.52    2.37   -8
-5   4   25.87    4.29   -8  -5   4   21.99    3.44    7   5  -4
49.88    4.45    7   5  -4   48.24    5.24    7   5  -4   51.82
3.92   -7  -5   4   53.93    4.62   -7  -5   4   41.64    2.93   -7
-5   4   48.29    5.36    6   5  -4   33.18    3.39    6   5  -4
38.23    3.72    6   5  -4   32.90    4.35   -6  -5   4   34.27
4.49   -6  -5   4   34.86    3.62   -6  -5   4   35.43    2.51    5
5  -4   31.30    3.25    5   5  -4   35.05    3.99    5   5  -4
28.05    3.06    5   5  -4   37.98    3.29   -5  -5   4   28.11
3.15   -5  -5   4   31.57    2.18   -5  -5   4   30.86    4.08    4
5  -4   40.86    3.21    4   5  -4   38.17    3.27    4   5  -4
41.43    3.55    4   5  -4   37.53    3.90   -4  -5   4   40.87
2.23   -4  -5   4   32.59    3.95   -4  -5   4   48.72    3.77    3
5  -4   90.75    5.23    3   5  -4   96.18    5.09    3   5  -4
72.13    4.27    3   5  -4   76.69    4.59   -3  -5   4   86.99
4.79   -3  -5   4   90.05    3.09   -3  -5   4   80.19    5.37    2
5  -4   94.99    5.28    2   5  -4   97.90    5.09    2   5  -4
101.33    4.55    2   5  -4   97.11    5.00    2   5  -4   91.11
3.54   -2  -5   4   94.12    5.44   -2  -5   4   98.94    5.04    1
5  -4   68.67    4.11    1   5  -4   72.65    3.86    1   5  -4
79.01    3.20    1   5  -4   71.13    3.51    1   5  -4   74.73
4.66   -1  -5   4   68.07    4.36   -1  -5   4   67.56    4.09    0
5  -4   97.90    4.17    0   5  -4   89.12    4.79    0   5  -4
95.70    5.42    0   5  -4   95.71    3.65    0  -5   4   85.78
4.75    0  -5   4   96.25    4.94   -1   5  -4   29.06    2.35   -1
5  -4   24.11    2.64   -1   5  -4   25.57    3.09    1  -5   4
24.72    2.37    1  -5   4   28.31    2.76   -2   5  -4   17.01
2.43   -2   5  -4   12.90    2.59   -2   5  -4   16.39    2.04    2
-5   4   12.66    1.71    2  -5   4   11.79    2.10    2  -5   4
13.41    2.25   -3   5  -4   43.50    4.27   -3   5  -4   45.28
3.67   -3   5  -4   47.61    3.47    3  -5   4   40.69    3.53    3
-5   4   40.19    2.66    3  -5   4   47.17    3.59   -4   5  -4
13.22    2.38   -4   5  -4   24.52    3.45   -4   5  -4   19.13
2.79   -4   5  -4   15.98    2.55    4  -5   4   16.18    2.52    4
-5   4   12.50    2.39   -5   5  -4    2.07    1.92   -5   5  -4
3.39    1.73   -5   5  -4    1.53    1.40   -5   5  -4    1.21    1.32
5  -5   4    2.49    1.45    5  -5   4    3.90    1.70   -6   5  -4
18.39    3.07   -6   5  -4   15.44    2.86   -6   5  -4   14.91
3.07   -6   5  -4   16.45    2.88    6  -5   4   15.49    2.80    6
-5   4   10.04    2.38   -7   5  -4    7.36    2.22   -7   5  -4
7.45    2.28   -7   5  -4    4.11    2.02    7  -5   4    7.78    2.31
7  -5   4    5.18    1.95   -8   5  -4   -1.88    1.31   -8   5  -4
-1.16    1.14   -8   5  -4   -0.21    1.28    8  -5   4    0.97
1.54   -9   5  -4   -0.73    1.36   -9   5  -4    0.84    1.67   -9
5  -4    0.19    1.71    9  -5   4    0.19    1.38  -10   5  -4
0.80    1.68  -10   5  -4    3.66    2.31  -10   5  -4    4.70    2.59
10  -5   4    1.64    2.12   11   4  -4    1.27    2.19   11   4  -4
1.53    2.76  -11  -4   4    0.13    1.95   10   4  -4    9.42    2.72
10   4  -4    4.78    3.10  -10  -4   4    8.74    2.69    9   4  -4
1.34    2.30    9   4  -4    0.62    1.44   -9  -4   4    2.78    2.11
-9  -4   4   -0.02    1.52    8   4  -4    0.67    1.96    8   4  -4
1.27    1.47    8   4  -4    0.76    1.33   -8  -4   4    1.37    1.43
-8  -4   4    2.87    1.95   -8  -4   4    0.21    0.80    7   4  -4
6.81    2.90    7   4  -4    3.84    1.78    7   4  -4    6.66    2.00
-7  -4   4    7.40    1.48   -7  -4   4    4.47    1.85   -7  -4   4
6.00    2.39    6   4  -4   25.89    3.00    6   4  -4   27.68    4.11
6   4  -4   30.62    3.28   -6  -4   4   28.03    3.91   -6  -4   4
30.96    2.29   -6  -4   4   26.52    3.21    5   4  -4   63.12
3.83    5   4  -4   66.01    5.18    5   4  -4   60.37    4.05    5
4  -4   57.06    4.01   -5  -4   4   60.39    4.14   -5  -4   4
62.41    4.95   -5  -4   4   62.85    3.09    4   4  -4  139.19
7.29    4   4  -4  133.36    6.09    4   4  -4  140.21    6.03    4
4  -4  137.66    5.96   -4  -4   4  137.05    4.80   -4  -4   4
130.07    6.17   -4  -4   4  117.87    6.88    3   4  -4  151.85
6.01    3   4  -4  147.40    4.79    3   4  -4  145.45    6.30    3
4  -4  150.59    7.15    3   4  -4  144.16    6.28   -3  -4   4
138.55    6.28   -3  -4   4  143.49    7.07    2   4  -4  170.84
6.25    2   4  -4  179.00    7.21    2   4  -4  175.97    5.22    2
4  -4  162.31    7.18    2   4  -4  155.38    6.67   -2  -4   4
186.00    7.77   -2  -4   4  174.32    6.99    1   4  -4  400.41
11.14    1   4  -4  377.70   12.47    1   4  -4  396.92   12.75    1
4  -4  382.02   11.09    1   4  -4  389.85   13.24   -1  -4   4
394.15   13.46   -1  -4   4  379.40   12.56    0   4  -4  276.58
10.44    0   4  -4  289.37    9.90    0   4  -4  290.73    7.74    0
4  -4  294.02    8.90    0  -4   4  284.39   10.26    0  -4   4
271.28    9.82   -1   4  -4  469.77   15.94   -1   4  -4  478.13
15.03   -1   4  -4  487.77   14.44    1  -4   4  486.88   15.38    1
-4   4  470.49   14.95    1  -4   4  480.59   14.98   -2   4  -4
283.82    9.65   -2   4  -4  271.43    9.88   -2   4  -4  279.11
10.76    2  -4   4  292.38   10.01    2  -4   4  284.44    9.75    2
-4   4  273.62    9.96   -3   4  -4  119.13    5.92   -3   4  -4
136.53    6.76   -3   4  -4  129.47    5.83   -3   4  -4  141.20
5.23    3  -4   4  135.36    5.95    3  -4   4  135.21    6.23    3
-4   4  140.49    5.53    3  -4   4  137.74    6.17   -4   4  -4
137.43    6.35   -4   4  -4  139.76    5.53   -4   4  -4  129.26
6.31   -4   4  -4  129.13    6.45   -4   4  -4  134.02    7.03    4
-4   4  145.23    5.57    4  -4   4  143.07    6.56    4  -4   4
128.41    6.41    4  -4   4  140.60    6.43   -5   4  -4   85.97
5.24   -5   4  -4   90.33    5.71   -5   4  -4   88.13    5.21   -5
4  -4   82.60    5.10    5  -4   4   88.42    5.17    5  -4   4
89.40    5.29    5  -4   4   92.05    5.30   -6   4  -4  167.53
8.43   -6   4  -4  162.64    8.04   -6   4  -4  163.07    7.86   -6
4  -4  167.04    8.01    6  -4   4  169.10    8.14    6  -4   4
162.74    7.83    6  -4   4  177.07    8.16   -7   4  -4  122.12
6.85   -7   4  -4  115.35    6.93   -7   4  -4  110.86    6.77    7
-4   4  117.57    6.74    7  -4   4  130.59    7.06    7  -4   4
123.62    7.11   -8   4  -4   22.82    3.55   -8   4  -4   16.83
3.26   -8   4  -4   22.44    3.49    8  -4   4   13.08    2.92    8
-4   4   21.28    3.58   -9   4  -4    0.16    1.52   -9   4  -4
-1.91    1.31   -9   4  -4   -0.63    1.39    9  -4   4   -0.43
1.53    9  -4   4   -0.52    1.38  -10   4  -4    2.91    2.31  -10
4  -4    2.06    1.96  -10   4  -4    4.59    2.34   10  -4   4
5.83    2.66   10  -4   4    4.95    2.33   11   3  -4    9.64    2.90
11   3  -4    0.50    2.59  -11  -3   4    7.72    2.81   10   3  -4
0.82    1.67   10   3  -4    2.10    2.63  -10  -3   4    2.69    1.98
9   3  -4   -0.03    1.24    9   3  -4    1.62    2.22   -9  -3   4
2.52    1.91   -9  -3   4    2.27    1.55    8   3  -4    2.35    1.51
8   3  -4    3.83    2.43   -8  -3   4    1.57    1.05   -8  -3   4
2.02    1.61   -8  -3   4    1.43    1.69    7   3  -4    4.37    2.44
7   3  -4   -1.27    1.25    7   3  -4    2.50    1.42   -7  -3   4
1.84    1.33   -7  -3   4    0.91    1.41   -7  -3   4    0.34    0.79
6   3  -4    3.39    1.42    6   3  -4    2.07    1.57    6   3  -4
3.86    2.33   -6  -3   4    5.16    1.60   -6  -3   4    5.17    2.06
-6  -3   4    3.89    1.11    5   3  -4    8.59    2.74    5   3  -4
6.16    1.45    5   3  -4    7.35    1.84    5   3  -4    3.80    1.37
5   3  -4    6.26    1.27   -5  -3   4    7.27    1.20   -5  -3   4
6.65    2.03   -5  -3   4    5.22    1.57    4   3  -4    5.56    1.60
4   3  -4    5.03    2.22    4   3  -4    6.51    1.02    4   3  -4
7.95    1.56   -4  -3   4    6.50    1.49   -4  -3   4    7.10    1.08
-4  -3   4    6.67    1.05   -4  -3   4    1.31    1.29    3   3  -4
7.07    1.46    3   3  -4    9.49    1.57    3   3  -4    8.45    0.83
3   3  -4    3.71    1.70    3   3  -4    6.83    1.49   -3  -3   4
9.59    0.97   -3  -3   4    8.42    1.57   -3  -3   4    9.21    0.87
-3  -3   4    7.73    1.76    2   3  -4   -0.55    0.68    2   3  -4
1.02    1.30    2   3  -4   -0.04    0.64    2   3  -4    1.49    0.91
-2  -3   4   -0.81    0.47   -2  -3   4   -0.08    0.68    1   3  -4
4.14    1.28    1   3  -4    4.78    0.82    1   3  -4    6.35    1.26
1   3  -4    5.58    1.32   -1  -3   4    4.39    1.25   -1  -3   4
3.93    1.09    0   3  -4   23.56    2.31    0   3  -4   24.79    1.94
0   3  -4   25.92    2.21    0   3  -4   29.04    1.50    0  -3   4
27.95    2.37    0  -3   4   24.62    2.22   -1   3  -4   22.44
2.06   -1   3  -4   17.58    1.47   -1   3  -4   18.32    2.13    1
-3   4   18.58    1.92    1  -3   4   18.81    1.89    1  -3   4
16.97    2.00   -2   3  -4   24.91    2.25   -2   3  -4   22.10
1.88   -2   3  -4   25.80    1.80   -2   3  -4   25.05    2.54    2
-3   4   22.85    2.20    2  -3   4   24.26    1.97    2  -3   4
24.69    2.05    2  -3   4   23.83    2.31   -3   3  -4    5.78
1.39   -3   3  -4    9.79    1.90   -3   3  -4    7.93    1.60    3
-3   4    8.11    1.29    3  -3   4    8.91    1.73    3  -3   4
7.41    1.49    3  -3   4    6.40    1.49    3  -3   4    8.91    1.36
-4   3  -4    1.72    1.38   -4   3  -4    2.81    1.28   -4   3  -4
3.25    1.27   -4   3  -4    2.77    1.23   -4   3  -4    2.18    0.96
4  -3   4    3.20    0.99    4  -3   4    1.14    1.05    4  -3   4
3.66    1.26    4  -3   4    1.93    1.00    4  -3   4    3.45    1.33
-5   3  -4    0.89    1.11   -5   3  -4   -0.06    0.78   -5   3  -4
0.32    1.36   -5   3  -4   -1.04    0.94   -5   3  -4    1.15    1.14
5  -3   4   -0.93    0.88    5  -3   4    1.35    1.24    5  -3   4
0.24    1.01    5  -3   4   -0.04    0.98   -6   3  -4    0.05    0.97
-6   3  -4   -0.74    0.98   -6   3  -4    0.46    1.56   -6   3  -4
-0.52    0.96    6  -3   4   -1.16    0.91    6  -3   4    0.43
1.12    6  -3   4    1.27    1.17    6  -3   4    0.70    1.17   -7
3  -4   -0.62    1.24   -7   3  -4   -0.25    1.21   -7   3  -4
0.77    1.28    7  -3   4   -0.16    1.27    7  -3   4    0.20    1.33
7  -3   4    1.70    1.53    7  -3   4    0.00    1.13   -8   3  -4
0.38    1.28   -8   3  -4    3.86    1.89   -8   3  -4    3.12    1.87
8  -3   4    2.58    1.59    8  -3   4    2.86    1.88   -9   3  -4
-0.43    1.45   -9   3  -4    0.37    1.34   -9   3  -4   -0.27
1.25    9  -3   4   -0.16    1.56    9  -3   4    1.46    1.58  -10
3  -4    2.76    1.96  -10   3  -4    3.72    2.21  -10   3  -4
5.07    2.50   10  -3   4    5.85    2.37   10  -3   4    3.72    2.46
-11   3  -4    0.59    1.89  -11   3  -4   -0.70    2.13  -11   3  -4
0.39    1.89   11  -3   4    0.57    2.01   11  -3   4   -1.48    1.94
11   2  -4   54.58    5.66   11   2  -4   49.31    6.94  -11  -2   4
62.04    6.09   10   2  -4   58.14    6.96   10   2  -4   51.62
5.26  -10  -2   4   64.08    5.83    9   2  -4   29.28    5.18    9
2  -4   38.19    4.29   -9  -2   4   35.16    4.30    8   2  -4
5.95    2.76    8   2  -4    6.80    1.96   -8  -2   4    7.67    2.35
-8  -2   4    4.65    1.36   -8  -2   4    5.02    1.91    7   2  -4
9.79    1.98    7   2  -4    4.74    1.60    7   2  -4    6.75    2.71
-7  -2   4    6.68    1.97   -7  -2   4    4.83    1.85   -7  -2   4
6.96    1.48    6   2  -4    2.01    1.15    6   2  -4    3.01    1.26
6   2  -4    1.65    2.14    6   2  -4    2.42    1.58   -6  -2   4
0.24    0.97   -6  -2   4    0.93    0.82   -6  -2   4    1.56    1.51
-6  -2   4    1.84    1.19    5   2  -4    3.34    2.19    5   2  -4
-0.93    1.23    5   2  -4    0.57    0.89    5   2  -4    2.03
0.97   -5  -2   4    2.62    1.27   -5  -2   4    1.36    1.27   -5
-2   4    2.09    0.88   -5  -2   4    2.74    1.09    4   2  -4
0.01    0.67    4   2  -4    0.59    0.77    4   2  -4   -1.31    1.37
4   2  -4    0.64    1.09   -4  -2   4   -0.73    0.76   -4  -2   4
0.20    0.54   -4  -2   4    1.29    0.95   -4  -2   4    1.13    0.76
3   2  -4    6.63    0.87    3   2  -4    6.43    1.38    3   2  -4
6.83    1.27    3   2  -4    5.82    1.96   -3  -2   4    6.67    0.86
-3  -2   4    3.58    1.14   -3  -2   4    6.17    1.53   -3  -2   4
6.41    0.83    2   2  -4  330.03   11.36    2   2  -4  318.00    9.38
2   2  -4  312.86    9.90   -2  -2   4  307.22    8.27   -2  -2   4
324.44   11.17   -2  -2   4  311.53    8.31   -2  -2   4  311.90
10.27    1   2  -4  569.73   15.11    1   2  -4  574.85   16.41    1
2  -4  588.64   17.72   -1  -2   4  585.13   16.81   -1  -2   4
561.62   17.99    0   2  -4  562.49   15.44    0   2  -4  548.52
16.06    0   2  -4  576.69   16.93    0  -2   4  570.01   16.44    0
-2   4  557.73   17.43   -1   2  -4  201.48    6.94   -1   2  -4
198.23    6.40   -1   2  -4  213.96    7.66   -1   2  -4  197.39
6.96    1  -2   4  209.75    6.45    1  -2   4  202.86    6.94    1
-2   4  206.84    7.01    1  -2   4  200.69    7.16    1  -2   4
188.77    7.30   -2   2  -4  196.01    7.13   -2   2  -4  204.85
7.64   -2   2  -4  210.25    7.24   -2   2  -4  196.07    6.91    2
-2   4  204.64    7.40    2  -2   4  208.54    7.37    2  -2   4
203.90    7.21    2  -2   4  206.36    7.00    2  -2   4  213.32
7.20   -3   2  -4  190.16    7.18   -3   2  -4  186.67    7.11   -3
2  -4  204.86    7.27   -3   2  -4  190.80    7.47    3  -2   4
210.87    7.31    3  -2   4  191.30    7.12    3  -2   4  197.35
7.20    3  -2   4  195.15    7.19    3  -2   4  189.72    7.28   -4
2  -4  398.48   12.79   -4   2  -4  388.09   12.84   -4   2  -4
380.22   12.63   -4   2  -4  378.70   12.92   -4   2  -4  374.10
13.04    4  -2   4  410.79   12.81    4  -2   4  406.26   12.81    4
-2   4  384.76   12.76    4  -2   4  396.80   13.05    4  -2   4
396.38   12.99   -5   2  -4  380.91   13.20   -5   2  -4  389.43
12.66   -5   2  -4  379.33   12.78   -5   2  -4  367.81   13.01   -5
2  -4  374.94   12.83    5  -2   4  385.14   13.26    5  -2   4
373.25   12.72    5  -2   4  375.80   12.73   -6   2  -4  224.40
9.01   -6   2  -4  210.56    9.16   -6   2  -4  221.92    8.88    6
-2   4  229.48    9.13    6  -2   4  204.06    8.69    6  -2   4
217.59    8.84    6  -2   4  212.06    9.17   -7   2  -4  113.54
6.53   -7   2  -4  115.12    6.20    7  -2   4  118.94    6.47    7
-2   4  106.01    6.26    7  -2   4  110.74    6.11   -8   2  -4
87.81    5.60   -8   2  -4   82.06    5.87    8  -2   4   74.54
5.28    8  -2   4   80.43    5.73    8  -2   4   92.01    5.95   -9
2  -4   44.63    4.56   -9   2  -4   45.55    5.10    9  -2   4
51.20    4.95    9  -2   4   42.20    4.53    9  -2   4   46.35
5.06  -10   2  -4   59.85    5.63  -10   2  -4   58.34    6.05   10
-2   4   65.55    6.02   10  -2   4   58.59    6.02   10  -2   4
63.31    5.76  -11   2  -4    9.40    2.93  -11   2  -4   10.58
3.34   11  -2   4    5.17    2.37   11  -2   4    4.10    2.50   11
1  -4    0.70    2.64   11   1  -4    2.23    2.01  -11  -1   4
-0.11    1.63   10   1  -4    2.46    1.76   10   1  -4    0.56
2.47  -10  -1   4    0.52    1.50    9   1  -4    1.56    1.40    9
1  -4    2.50    2.29   -9  -1   4    0.24    1.48    8   1  -4
4.59    1.79    8   1  -4    0.17    2.23   -8  -1   4    1.80    1.47
-8  -1   4    2.15    1.11   -8  -1   4    1.97    1.54    7   1  -4
2.81    1.55    7   1  -4    1.95    2.04    7   1  -4    1.82    1.30
7   1  -4    3.87    1.49   -7  -1   4    1.93    1.01   -7  -1   4
1.61    1.38   -7  -1   4    3.32    1.53   -7  -1   4    2.42    1.46
6   1  -4    4.88    1.53    6   1  -4    6.37    1.61    6   1  -4
4.33    2.39    6   1  -4    1.44    1.46   -6  -1   4    3.49    1.39
-6  -1   4    6.06    1.84   -6  -1   4    3.87    1.11   -6  -1   4
4.01    1.63    5   1  -4    2.58    1.44    5   1  -4    6.09    2.45
5   1  -4    2.35    1.13    5   1  -4    1.76    1.09   -5  -1   4
4.46    1.51   -5  -1   4    2.87    0.87   -5  -1   4    1.25    1.23
-5  -1   4    2.90    1.20    4   1  -4    9.71    2.45    4   1  -4
14.16    1.74    4   1  -4   10.14    1.44    4   1  -4   13.91
1.89   -4  -1   4   12.92    2.06   -4  -1   4   12.38    1.53   -4
-1   4   11.65    1.87   -4  -1   4   11.09    1.26    3   1  -4
9.08    2.15    3   1  -4   10.28    1.48    3   1  -4    9.76    1.31
-3  -1   4    9.91    1.68   -3  -1   4   10.14    1.58   -3  -1   4
9.84    1.02   -3  -1   4   11.93    1.24    2   1  -4   29.77    2.73
2   1  -4   32.30    1.98    2   1  -4   32.18    1.95   -2  -1   4
35.01    2.34   -2  -1   4   35.19    1.59   -2  -1   4   33.93
2.54   -2  -1   4   32.99    1.50   -2  -1   4   34.27    1.43    1
1  -4   20.91    1.52    1   1  -4   22.18    1.28    1   1  -4
26.00    2.25   -1  -1   4   25.99    2.19   -1  -1   4   22.82
1.89    0   1  -4   26.91    1.70    0   1  -4   28.52    2.10    0
-1   4   27.67    2.12    0  -1   4   27.92    2.09    0  -1   4
28.28    1.27    0  -1   4   24.13    1.93   -1   1  -4   28.87
2.06   -1   1  -4   27.41    1.77    1  -1   4   26.28    2.03    1
-1   4   26.59    1.56    1  -1   4   30.83    2.12    1  -1   4
30.00    2.05    1  -1   4   24.96    1.68   -2   1  -4    2.47
0.83   -2   1  -4    2.17    0.83    2  -1   4    2.34    0.82    2
-1   4    1.33    0.76    2  -1   4    2.89    0.79    2  -1   4
0.77    0.72    2  -1   4    1.11    0.65   -3   1  -4   -0.44    0.59
-3   1  -4    1.17    0.86   -3   1  -4    0.42    0.63    3  -1   4
0.22    0.63    3  -1   4   -0.57    0.54    3  -1   4    0.39    0.64
3  -1   4    0.61    0.76    3  -1   4   -0.10    0.56   -4   1  -4
19.82    2.04   -4   1  -4   23.37    2.23   -4   1  -4   19.85
2.00    4  -1   4   21.07    2.25    4  -1   4   20.30    2.10    4
-1   4   24.56    2.27    4  -1   4   18.95    2.11    4  -1   4
21.66    2.09   -5   1  -4   84.04    4.31   -5   1  -4   87.10
4.50   -5   1  -4   86.13    4.55    5  -1   4   92.29    4.96    5
-1   4   85.82    4.55    5  -1   4   84.64    4.52    5  -1   4
93.43    4.93   -6   1  -4   46.04    3.67   -6   1  -4   51.98
3.70   -6   1  -4   47.22    3.46    6  -1   4   46.99    3.78    6
-1   4   45.83    3.45    6  -1   4   40.51    3.64    6  -1   4
46.63    3.64   -7   1  -4   28.35    3.14   -7   1  -4   26.33
3.38    7  -1   4   34.03    3.65    7  -1   4   27.09    3.34    7
-1   4   26.05    3.15   -8   1  -4   19.17    3.00   -8   1  -4
17.34    3.07    8  -1   4   20.81    3.30    8  -1   4   18.12
2.96    8  -1   4   18.56    3.17   -9   1  -4   23.07    3.81   -9
1  -4   22.53    3.39    9  -1   4   15.02    3.26    9  -1   4
24.83    3.84    9  -1   4   23.88    3.58  -10   1  -4    9.97
2.92  -10   1  -4   20.29    3.49   10  -1   4   11.42    2.88   10
-1   4   18.49    3.80   10  -1   4   12.52    3.15  -11   1  -4
7.25    2.62  -11   1  -4    9.96    3.08   11  -1   4    8.05    2.85
11  -1   4    6.54    2.76   11  -1   4    5.83    2.45   11   0  -4
75.17    8.22   11   0  -4   85.91    6.44  -11   0   4   81.80
7.14   10   0  -4  107.52    8.55   10   0  -4   94.61    6.49  -10
0   4   97.95    6.97    9   0  -4   79.62    5.61    9   0  -4
74.97    7.38   -9   0   4   94.95    6.32    8   0  -4  120.98
8.43    8   0  -4  103.28    6.02   -8   0   4  106.18    5.18   -8
0   4  108.61    6.59   -8   0   4  120.21    6.58    7   0  -4
108.00    7.65    7   0  -4  113.59    5.85    7   0  -4  115.98
5.03   -7   0   4  103.48    6.18   -7   0   4  110.40    5.94   -7
0   4  120.68    6.11   -7   0   4  101.89    4.86    6   0  -4
46.47    3.29    6   0  -4   42.90    3.28    6   0  -4   27.34
4.28   -6   0   4   40.93    3.71   -6   0   4   49.56    3.60   -6
0   4   48.59    3.54   -6   0   4   44.38    2.75    5   0  -4
27.71    2.59    5   0  -4   25.99    2.40    5   0  -4   24.44
3.72   -5   0   4   24.16    1.96   -5   0   4   24.08    2.77   -5
0   4   26.12    2.54   -5   0   4   27.64    2.70    4   0  -4
22.69    3.20    4   0  -4   25.78    2.29    4   0  -4   16.70
1.83   -4   0   4   19.85    2.27   -4   0   4   27.60    2.29   -4
0   4   24.57    1.73   -4   0   4   21.84    2.30    3   0  -4
2.36    0.81    3   0  -4    2.29    0.96    3   0  -4    2.27    1.59
-3   0   4    2.37    0.94   -3   0   4    4.07    0.97   -3   0   4
1.65    0.61   -3   0   4    2.43    0.96    2   0  -4   16.49    2.14
2   0  -4   16.84    1.32    2   0  -4   18.88    1.51   -2   0   4
15.96    1.82   -2   0   4   16.26    1.36   -2   0   4   13.65
1.56   -2   0   4   17.14    1.07   -2   0   4   16.73    1.16    1
0  -4   19.24    1.99    1   0  -4   19.04    1.24    1   0  -4
18.48    1.17   -1   0   4   16.84    1.14   -1   0   4   15.46
1.73   -1   0   4   17.16    1.54    0   0  -4    0.82    0.80    0
0  -4    1.14    0.50    0   0   4    0.62    0.64    0   0   4
0.82    0.55    0   0   4   -0.34    0.65    0   0   4    0.29    0.38
-1   0  -4  177.48    5.45   -1   0  -4  172.46    6.50    1   0   4
175.63    5.73    1   0   4  171.78    6.52    1   0   4  181.98
5.45    1   0   4  169.39    6.45   -2   0  -4  262.09    9.01   -2
0  -4  253.73    8.98   -2   0  -4  249.94    7.84    2   0   4
255.31    8.95    2   0   4  264.81    8.07    2   0   4  259.74
8.35    2   0   4  271.59    7.92    2   0   4  246.46    8.90   -3
0  -4  426.81   14.60   -3   0  -4  474.17   13.58    3   0   4
468.90   14.85    3   0   4  470.94   13.55    3   0   4  459.14
14.69    3   0   4  466.23   14.21   -4   0  -4  101.93    4.77   -4
0  -4   98.33    4.32   -4   0  -4   96.23    4.25    4   0   4
99.24    4.26    4   0   4   95.15    4.63    4   0   4   99.37
4.96    4   0   4   96.67    4.67    4   0   4   88.05    4.23   -5
0  -4   96.66    4.68   -5   0  -4   98.09    4.32   -5   0  -4
102.21    5.09    5   0   4   92.95    4.93    5   0   4   87.79
5.10    5   0   4  103.53    4.81    5   0   4  101.16    4.67   -6
0  -4   84.33    4.50   -6   0  -4   79.61    4.73    6   0   4
83.60    4.60    6   0   4   73.44    4.86    6   0   4   67.94
4.51   -7   0  -4  167.72    7.19   -7   0  -4  157.54    7.57    7
0   4  147.24    7.67    7   0   4  142.84    7.01    7   0   4
144.30    7.37   -8   0  -4  107.06    6.54   -8   0  -4  116.06
6.20    8   0   4  117.90    6.78    8   0   4  107.26    6.73    8
0   4  106.42    6.18   -9   0  -4   88.78    5.82   -9   0  -4
92.15    6.48    9   0   4  105.27    7.00    9   0   4   92.61
6.36    9   0   4   96.35    6.12  -10   0  -4   83.81    6.35  -10
0  -4   81.35    5.71   10   0   4   66.47    6.14   10   0   4
62.14    5.62   10   0   4   82.75    6.43  -11   0  -4   51.61
5.96  -11   0  -4   62.52    5.66   11   0   4   57.94    5.76   11
0   4   69.78    6.56   11   0   4   73.37    6.90   11  -1  -4
7.57    3.98   11  -1  -4   10.40    3.12  -11   1   4    3.29    2.24
10  -1  -4    9.09    2.63   10  -1  -4    9.27    3.39  -10   1   4
10.00    2.87    9  -1  -4   10.28    2.50    9  -1  -4   10.13
3.50   -9   1   4   13.85    3.04   -9   1   4   10.31    2.67    8
-1  -4   12.93    3.59    8  -1  -4   10.29    2.28   -8   1   4
18.14    3.15   -8   1   4   13.23    2.74   -8   1   4   14.48
2.10    7  -1  -4   51.62    3.82    7  -1  -4   52.67    5.73   -7
1   4   53.38    4.42   -7   1   4   55.71    3.37   -7   1   4
49.00    4.32    6  -1  -4   30.23    2.85    6  -1  -4   34.90
2.81    6  -1  -4   38.94    4.76   -6   1   4   31.10    2.88   -6
1   4   32.12    2.40   -6   1   4   33.21    3.31   -6   1   4
33.51    3.41    5  -1  -4    0.34    0.77    5  -1  -4    1.98
1.31    5  -1  -4    0.66    1.83   -5   1   4    1.22    0.78   -5
1   4    0.27    0.99   -5   1   4   -0.85    0.65   -5   1   4
-0.71    1.03    4  -1  -4    1.14    1.64    4  -1  -4    0.80
0.74    4  -1  -4    1.95    1.11   -4   1   4    0.79    0.63   -4
1   4   -0.43    0.61   -4   1   4   -0.62    0.76   -4   1   4
1.03    0.96    3  -1  -4    8.55    1.14    3  -1  -4    4.76    1.74
3  -1  -4    6.24    1.22   -3   1   4    6.89    1.33   -3   1   4
9.30    1.47   -3   1   4    7.97    1.04   -3   1   4    7.87    1.42
2  -1  -4   62.59    2.88    2  -1  -4   63.97    2.54    2  -1  -4
57.99    3.76   -2   1   4   56.40    3.06   -2   1   4   61.10
3.30   -2   1   4   68.71    3.18   -2   1   4   64.41    2.44    1
-1  -4  107.39    3.71    1  -1  -4  104.58    3.25    1  -1  -4
102.62    4.82   -1   1   4  111.43    4.14   -1   1   4  105.36
4.56   -1   1   4  105.31    2.94   -1   1   4  105.16    2.96    0
-1  -4   39.08    1.42    0   1   4   36.98    2.41    0   1   4
39.23    2.64    0   1   4   38.01    2.06   -1  -1  -4   45.41
2.79   -1  -1  -4   43.65    1.75    1   1   4   48.03    2.36    1
1   4   44.52    2.74    1   1   4   47.55    1.77   -2  -1  -4
254.76    9.23   -2  -1  -4  262.96    9.20    2   1   4  266.64
9.20    2   1   4  258.71    9.22    2   1   4  270.86    7.79    2
1   4  258.21    8.56   -3  -1  -4  210.22    6.51   -3  -1  -4
191.88    7.62    3   1   4  197.51    7.64    3   1   4  201.01
7.29    3   1   4  184.80    7.63    3   1   4  205.74    6.46    3
1   4  206.89    6.67   -4  -1  -4   57.68    3.50   -4  -1  -4
53.13    2.75    4   1   4   37.53    3.11    4   1   4   53.64
2.75    4   1   4   52.04    3.26    4   1   4   49.29    2.84   -5
-1  -4   52.00    3.01   -5  -1  -4   48.39    3.59    5   1   4
50.52    3.18    5   1   4   46.17    3.57    5   1   4   50.58
3.47   -6  -1  -4   42.70    3.10   -6  -1  -4   49.43    3.93    6
1   4   45.27    3.32    6   1   4   45.53    3.93    6   1   4
55.10    3.90   -7  -1  -4   65.90    4.05   -7  -1  -4   62.89
4.66    7   1   4   52.79    3.89    7   1   4   58.26    4.37    7
1   4   56.15    4.56   -8  -1  -4   99.50    5.53   -8  -1  -4
99.72    6.43    8   1   4   94.90    6.00    8   1   4   96.65
5.75    8   1   4  106.34    6.64   -9  -1  -4  138.87    7.06    9
1   4  139.33    8.24    9   1   4  121.21    7.46    9   1   4
136.81    7.41  -10  -1  -4   74.61    5.33  -10  -1  -4   63.45
5.93   10   1   4   59.31    5.73   10   1   4   71.43    5.85   10
1   4   76.63    6.69  -11  -1  -4   43.48    5.41  -11  -1  -4
47.71    4.94   11   1   4   37.51    5.43   11   1   4   42.12
5.05   11   1   4   42.82    5.36  -12  -1  -4   24.69    4.60   12
1   4   23.65    4.51   12   1   4   28.93    5.22   12   1   4
36.19    5.09   10  -2  -4   50.21    5.06   10  -2  -4   53.86
6.72  -10   2   4   51.53    5.54  -10   2   4   57.38    5.81    9
-2  -4   62.02    5.13    9  -2  -4   60.71    6.69   -9   2   4
62.86    5.67   -9   2   4   64.25    5.67    8  -2  -4  116.02
8.16    8  -2  -4   95.54    5.79   -8   2   4   92.85    6.30   -8
2   4  100.69    5.07   -8   2   4  115.40    6.83    7  -2  -4
59.80    4.16    7  -2  -4   65.88    6.37   -7   2   4   63.46
4.71   -7   2   4   62.59    4.78   -7   2   4   70.55    3.83    6
-2  -4   91.16    4.81    6  -2  -4   98.81    7.00    6  -2  -4
90.53    4.42   -6   2   4   95.91    5.61   -6   2   4   93.93
4.43   -6   2   4   91.30    5.39    5  -2  -4  100.43    6.70    5
-2  -4   97.62    4.69    5  -2  -4   97.29    4.67   -5   2   4
104.78    5.52   -5   2   4  103.14    4.81   -5   2   4  102.52
4.44   -5   2   4  103.39    5.42    4  -2  -4   80.99    3.77    4
-2  -4   78.66    5.53    4  -2  -4   87.45    4.11   -4   2   4
78.29    3.99   -4   2   4   82.52    4.53   -4   2   4   76.69
3.55   -4   2   4   88.48    4.55    3  -2  -4  116.68    4.80    3
-2  -4  130.62    4.62    3  -2  -4  126.03    6.38   -3   2   4
123.14    5.51   -3   2   4  119.77    5.22   -3   2   4  121.23
4.42   -3   2   4  123.75    5.19    2  -2  -4   98.72    3.92    2
-2  -4   96.29    3.40    2  -2  -4   94.59    4.97   -2   2   4
92.25    4.39   -2   2   4   97.85    3.44   -2   2   4   84.90
4.11   -2   2   4   95.27    4.05    1  -2  -4   80.79    4.28    1
-2  -4   83.67    3.29    1  -2  -4   89.33    2.68   -1   2   4
81.58    3.87   -1   2   4   80.73    2.81   -1   2   4   83.11
3.81   -1   2   4   84.17    3.38    0  -2  -4    4.81    0.69    0
-2  -4    3.65    1.11    0   2   4    6.35    1.35    0   2   4
6.15    1.14    0   2   4    4.52    0.97   -1  -2  -4    0.42    0.65
-1  -2  -4    0.19    0.67    1   2   4   -0.46    0.56    1   2   4
-0.27    0.45    1   2   4   -0.32    0.47   -2  -2  -4    1.23
0.77   -2  -2  -4    0.25    0.67    2   2   4    2.49    0.88    2
2   4    0.28    0.70    2   2   4    0.08    0.54    2   2   4
-0.03    0.39   -3  -2  -4   27.76    2.57    3   2   4   30.18
2.57    3   2   4   29.08    1.85    3   2   4   27.03    2.57    3
2   4   27.74    2.20   -4  -2  -4  112.38    5.52   -4  -2  -4
117.27    4.21    4   2   4  110.69    5.18    4   2   4  105.11
4.54    4   2   4  110.42    5.53   -5  -2  -4    0.74    1.11   -5
-2  -4    4.09    1.07    5   2   4    2.01    1.04    5   2   4
1.71    1.29    5   2   4    1.39    0.97   -6  -2  -4   12.52    2.49
-6  -2  -4   13.00    1.83    6   2   4   12.21    2.20    6   2   4
13.56    2.50    6   2   4   15.16    2.13   -7  -2  -4   59.21
4.75   -7  -2  -4   62.69    3.81    7   2   4   59.60    4.71    7
2   4   58.14    4.10    7   2   4   57.52    4.32   -8  -2  -4
25.45    3.87   -8  -2  -4   34.75    3.19    8   2   4   30.62
3.45    8   2   4   35.70    3.89    8   2   4   36.51    4.32   -9
-2  -4   34.59    3.56   -9  -2  -4   30.42    4.65    9   2   4
43.09    4.20    9   2   4   46.69    5.13    9   2   4   28.89
3.89   10   2   4   21.79    4.07   10   2   4   16.14    3.26   10
2   4   21.58    3.72  -11  -2  -4   18.56    3.72   11   2   4
15.26    3.37   11   2   4   20.00    3.86   11   2   4   18.89
4.10  -12  -2  -4    6.82    2.77   12   2   4   10.59    3.07   12
2   4    7.61    2.92   12   2   4   12.20    3.81   10  -3  -4
44.99    6.35   10  -3  -4   39.77    4.75  -10   3   4   51.68
5.73  -10   3   4   40.54    5.17    9  -3  -4   76.27    7.48    9
-3  -4   83.32    5.74   -9   3   4   66.75    6.08   -9   3   4
79.14    6.04    8  -3  -4   77.70    7.03    8  -3  -4   83.89
5.23   -8   3   4   66.55    4.24   -8   3   4   89.36    5.90   -8
3   4   68.41    5.73    7  -3  -4   80.77    4.91    7  -3  -4
79.26    6.91   -7   3   4   80.99    5.57   -7   3   4   87.69
4.54   -7   3   4   76.88    5.32    6  -3  -4   45.05    3.32    6
-3  -4   42.43    4.94   -6   3   4   43.31    2.95   -6   3   4
38.22    3.77   -6   3   4   40.22    4.01    5  -3  -4   51.26
3.28    5  -3  -4   48.56    3.27    5  -3  -4   53.29    5.19   -5
3   4   51.73    3.06   -5   3   4   51.89    4.22   -5   3   4
54.67    3.93    4  -3  -4   96.90    4.55    4  -3  -4   98.22
4.41    4  -3  -4  108.22    6.45   -4   3   4   96.72    5.29   -4
3   4   95.06    4.96   -4   3   4   96.62    4.20   -4   3   4
101.40    4.47    3  -3  -4  236.00    9.67    3  -3  -4  237.13
7.78    3  -3  -4  235.34    7.59   -3   3   4  227.90    8.08   -3
3   4  227.12    8.97   -3   3   4  229.31    8.25   -3   3   4
231.90    7.42    2  -3  -4  169.78    5.49    2  -3  -4  163.42
5.92    2  -3  -4  169.70    7.37   -2   3   4  165.25    6.37   -2
3   4  168.80    6.99   -2   3   4  178.82    5.51   -2   3   4
166.95    5.52    1  -3  -4   48.82    2.54    1  -3  -4   51.71
2.97    1  -3  -4   51.05    3.40    1  -3  -4   53.40    2.08   -1
3   4   52.56    3.00   -1   3   4   50.09    2.90   -1   3   4
58.08    3.30   -1   3   4   51.25    2.19   -1   3   4   54.96
2.57   -1   3   4   52.54    2.07    0  -3  -4   14.48    1.23    0
-3  -4   12.69    1.77    0  -3  -4   12.29    1.58    0   3   4
12.48    1.62    0   3   4   14.38    1.84    0   3   4   13.37
0.74    0   3   4   14.29    1.66    0   3   4   13.08    0.72    0
3   4   14.97    1.54   -1  -3  -4   14.48    1.81   -1  -3  -4
12.26    1.70   -1  -3  -4   14.05    1.03   -1  -3  -4   14.23
1.03    1   3   4   15.39    0.91    1   3   4   11.96    1.64    1
3   4   18.51    1.85    1   3   4   13.41    1.76    1   3   4
15.05    1.35   -2  -3  -4    2.29    0.39   -2  -3  -4    2.65
1.04   -2  -3  -4    2.29    1.01    2   3   4    3.00    1.11    2
3   4    1.08    0.74    2   3   4    3.22    1.07    2   3   4
1.98    0.61    2   3   4    1.55    0.59   -3  -3  -4   -0.31    0.76
3   3   4    1.93    1.00    3   3   4    0.52    0.66    3   3   4
0.44    0.37    3   3   4    0.38    0.56   -4  -3  -4   48.64    3.65
4   3   4   60.87    3.10    4   3   4   54.57    3.70    4   3   4
53.45    3.42   -5  -3  -4   32.00    2.08   -5  -3  -4   23.54
3.02    5   3   4   32.33    2.61    5   3   4   38.40    3.27    5
3   4   33.90    3.38   -6  -3  -4   74.20    5.26   -6  -3  -4
78.73    3.75    6   3   4   69.19    4.53    6   3   4   83.81
4.48    6   3   4   65.95    4.83   -7  -3  -4   96.34    4.73   -7
-3  -4   98.81    6.47    7   3   4   95.24    5.32    7   3   4
106.88    6.41    7   3   4   95.62    5.70   -8  -3  -4  108.43
7.21    8   3   4  102.29    6.28    8   3   4   99.44    6.66    8
3   4  108.39    6.00   -9  -3  -4   56.51    5.95    9   3   4
41.27    4.47    9   3   4   44.49    5.10    9   3   4   38.84
4.11   10   3   4   64.32    6.32   10   3   4   61.98    5.64   10
3   4   63.78    5.47   11   3   4   82.40    7.51   11   3   4
89.12    6.80   11   3   4   88.61    6.49  -12  -3  -4   83.47
7.47   12   3   4   83.68    7.47   12   3   4  106.51    8.48   12
3   4   96.37    7.16   10  -4  -4   17.25    4.33  -10   4   4
18.51    3.82  -10   4   4   16.46    3.84    9  -4  -4   12.80
2.91    9  -4  -4   14.36    3.92   -9   4   4   17.27    3.48   -9
4   4   13.54    3.34    8  -4  -4   17.73    3.95    8  -4  -4
19.37    3.06   -8   4   4   25.22    3.93   -8   4   4   25.67
3.74    7  -4  -4   41.99    5.33    7  -4  -4   43.63    3.86   -7
4   4   49.63    4.56   -7   4   4   53.29    3.51   -7   4   4
47.85    4.77    6  -4  -4   22.23    2.65    6  -4  -4   24.49
4.07   -6   4   4   26.78    3.35   -6   4   4   24.93    2.44   -6
4   4   19.07    3.22    5  -4  -4   38.94    4.64    5  -4  -4
49.09    3.19    5  -4  -4   47.55    3.24   -5   4   4   50.56
3.07   -5   4   4   47.96    4.24   -5   4   4   46.95    3.88    4
-4  -4   78.66    4.02    4  -4  -4   74.50    5.56    4  -4  -4
75.86    4.03   -4   4   4   87.58    4.14   -4   4   4   89.40
3.98   -4   4   4   83.94    5.18   -4   4   4   75.44    3.75   -4
4   4   90.22    4.72    3  -4  -4   22.03    1.95    3  -4  -4
22.59    2.97    3  -4  -4   20.90    1.92    3  -4  -4   23.14
2.11   -3   4   4   20.95    2.27   -3   4   4   23.42    2.56   -3
4   4   23.35    1.98   -3   4   4   22.33    1.95   -3   4   4
24.12    1.94   -3   4   4   25.92    2.94    2  -4  -4   61.56
4.12    2  -4  -4   60.53    3.19    2  -4  -4   60.72    3.26    2
-4  -4   61.75    2.89   -2   4   4   65.90    2.92   -2   4   4
61.41    3.25   -2   4   4   61.39    4.01   -2   4   4   59.41
3.69   -2   4   4   61.32    2.87   -2   4   4   62.25    3.27    1
-4  -4   48.69    2.27    1  -4  -4   44.02    2.56    1  -4  -4
44.18    3.22    1  -4  -4   48.53    2.93   -1   4   4   48.09
2.88   -1   4   4   47.33    3.25   -1   4   4   45.48    2.23   -1
4   4   44.68    2.97   -1   4   4   46.35    2.47   -1   4   4
52.95    2.31    0  -4  -4   25.47    2.42    0  -4  -4   19.73
2.04    0  -4  -4   19.63    1.61    0   4   4   20.38    2.02    0
4   4   23.02    2.35    0   4   4   21.39    1.99    0   4   4
16.28    2.02    0   4   4   20.99    1.30    0   4   4   21.87
1.26    0   4   4   18.08    1.22   -1  -4  -4   24.66    1.61   -1
-4  -4   25.70    2.37   -1  -4  -4   22.87    2.30    1   4   4
22.76    2.27    1   4   4   24.30    2.32    1   4   4   25.06
1.98    1   4   4   25.87    2.37    1   4   4   24.35    1.39   -2
-4  -4   -0.34    0.76   -2  -4  -4    1.54    0.55   -2  -4  -4
3.73    1.14    2   4   4    2.47    1.08    2   4   4    2.04    0.90
2   4   4    2.28    0.80    2   4   4    1.89    0.65   -3  -4  -4
4.81    0.69   -3  -4  -4    5.40    1.53    3   4   4    3.79    0.94
3   4   4    4.96    1.44    3   4   4    3.53    0.86    3   4   4
3.89    1.19   -4  -4  -4    0.91    0.46   -4  -4  -4    1.12    1.17
4   4   4   -0.22    0.73    4   4   4    0.83    0.56    4   4   4
0.75    0.97    4   4   4    1.57    0.85   -5  -4  -4    2.67    1.69
5   4   4    1.14    1.20    5   4   4    2.72    1.24    5   4   4
1.74    0.60    5   4   4    0.81    0.94   -6  -4  -4   -0.43    1.41
6   4   4    0.98    1.25    6   4   4    0.80    1.00    6   4   4
2.21    1.33   -7  -4  -4   -0.54    1.70    7   4   4    0.18    0.95
7   4   4    1.22    1.20    7   4   4    0.16    1.30   -8  -4  -4
6.94    2.79    8   4   4    3.63    1.68    8   4   4    2.77    1.85
8   4   4    2.63    1.53   -9  -4  -4    7.53    3.06    9   4   4
6.12    2.34    9   4   4    6.35    2.13    9   4   4    8.33    2.17
-10  -4  -4    0.37    2.71   10   4   4   -0.62    1.25   10   4   4
-0.50    1.32   10   4   4   -1.99    1.52   11   4   4    0.43
1.91   11   4   4    7.05    2.44   11   4   4    2.23    1.87   12
4   4    2.47    2.46   12   4   4    0.26    1.82   12   4   4
0.02    1.81    9  -5  -4   17.16    4.33   -9   5   4   31.73    4.79
-9   5   4   27.14    4.34    8  -5  -4   28.16    4.80   -8   5   4
37.42    4.57   -8   5   4   26.43    4.27    7  -5  -4   57.44
4.26    7  -5  -4   62.03    6.09   -7   5   4   57.90    5.47   -7
5   4   59.26    5.09   -7   5   4   66.05    4.08    6  -5  -4
194.50   10.47    6  -5  -4  228.32    8.88   -6   5   4  204.09
9.31   -6   5   4  211.40    8.07   -6   5   4  216.17   10.25   -6
5   4  213.81    8.70    5  -5  -4  222.14   10.66    5  -5  -4
216.74    7.65    5  -5  -4  219.47    8.59   -5   5   4  216.70
10.09   -5   5   4  216.67    8.03   -5   5   4  219.49    9.19   -5
5   4  233.84    8.66    4  -5  -4  199.06    7.23    4  -5  -4
196.99    7.52    4  -5  -4  185.13    9.29   -4   5   4  186.82
8.98   -4   5   4  206.35    7.57   -4   5   4  195.33    8.00   -4
5   4  185.83    7.04   -4   5   4  201.29    8.74    3  -5  -4
99.37    4.56    3  -5  -4  108.49    4.76    3  -5  -4  107.23
6.08   -3   5   4  110.90    4.72   -3   5   4  108.18    4.60   -3
5   4  110.96    6.16   -3   5   4   99.50    5.01   -3   5   4
109.94    5.75   -3   5   4  103.12    4.53    2  -5  -4  127.41
5.00    2  -5  -4  120.16    6.23    2  -5  -4  130.63    5.36    2
-5  -4  126.92    5.16   -2   5   4  117.79    5.90   -2   5   4
128.26    4.89   -2   5   4  122.24    6.29   -2   5   4  123.79
5.24   -2   5   4  135.11    5.03   -2   5   4  123.09    5.22    1
-5  -4  227.69    8.33    1  -5  -4  216.51    7.56    1  -5  -4
220.06    8.83   -1   5   4  232.80    7.40   -1   5   4  227.72
7.46   -1   5   4  227.23    7.17   -1   5   4  229.29    8.32   -1
5   4  220.03    8.65   -1   5   4  230.57    9.14    0  -5  -4
164.54    5.96    0  -5  -4  161.79    6.81    0  -5  -4  164.39
7.04    0   5   4  169.13    5.40    0   5   4  180.65    5.74    0
5   4  163.20    7.00    0   5   4  160.74    6.84    0   5   4
178.62    7.41   -1  -5  -4  221.48    7.14   -1  -5  -4  219.68
8.48   -1  -5  -4  211.39    8.51    1   5   4  219.09    6.91    1
5   4  224.73    8.23    1   5   4  217.73    6.19    1   5   4
224.49    6.23    1   5   4  218.74    8.60    1   5   4  212.39
8.37   -2  -5  -4  226.54    8.65   -2  -5  -4  214.00    6.90   -2
-5  -4  218.65    8.90    2   5   4  217.13    7.05    2   5   4
220.22    8.02    2   5   4  216.22    8.66    2   5   4  220.31
8.58   -3  -5  -4   36.91    2.10   -3  -5  -4   41.85    3.62    3
5   4   40.83    2.65    3   5   4   43.03    2.53    3   5   4
41.51    3.23    3   5   4   43.31    3.26   -4  -5  -4   -0.84
1.13   -4  -5  -4    1.89    0.65    4   5   4    0.76    0.76    4
5   4    1.02    0.82    4   5   4    0.42    0.81    4   5   4
2.04    1.24   -5  -5  -4    5.73    2.13   -5  -5  -4   10.83    1.19
5   5   4    9.20    1.33    5   5   4    7.41    1.63    5   5   4
9.91    2.01    5   5   4    5.90    1.83   -6  -5  -4    4.06    2.03
6   5   4    1.07    1.40    6   5   4    2.50    1.27    6   5   4
1.79    0.80    6   5   4    2.11    1.31   -7  -5  -4   -2.11    1.50
7   5   4   -0.28    0.94    7   5   4    1.28    1.23    7   5   4
1.97    0.70    7   5   4    1.39    1.50   -8  -5  -4    7.89    3.28
8   5   4    9.34    2.54    8   5   4   10.36    2.32    8   5   4
7.78    2.20   -9  -5  -4   20.04    4.66    9   5   4   18.70    3.33
9   5   4   22.36    3.99    9   5   4   21.30    3.40   10   5   4
55.08    5.18   10   5   4   71.17    6.66   10   5   4   73.17
6.22   11   5   4   91.81    6.61   11   5   4  103.93    7.91   11
5   4   71.63    6.63   -9   6   4    9.09    3.21   -9   6   4
2.78    2.31   -8   6   4    1.55    2.07   -8   6   4   -0.19    1.58
-7   6   4    2.18    1.79   -7   6   4   -0.44    1.56    6  -6  -4
1.38    2.23   -6   6   4   -0.60    1.33   -6   6   4    4.83    2.07
-6   6   4    7.00    1.72    5  -6  -4    0.06    1.90    5  -6  -4
-1.17    0.93   -5   6   4   -0.26    0.85   -5   6   4   -1.16
1.07   -5   6   4   -1.37    1.27    4  -6  -4    1.55    1.13    4
-6  -4   -0.07    1.34    4  -6  -4    0.21    1.19   -4   6   4
-0.10    1.33   -4   6   4    0.39    1.09   -4   6   4    0.23
0.96   -4   6   4    0.19    1.02    3  -6  -4    0.75    1.02    3
-6  -4    0.79    0.87    3  -6  -4    0.98    0.99   -3   6   4
-0.39    0.80   -3   6   4   -0.80    0.66   -3   6   4   -0.25
1.12   -3   6   4    2.03    1.56   -3   6   4    2.10    1.05    2
-6  -4    1.64    1.11    2  -6  -4    0.39    0.97    2  -6  -4
0.81    0.91    2  -6  -4    0.37    0.69   -2   6   4   -0.43    0.85
-2   6   4    0.01    1.00   -2   6   4    1.32    0.90   -2   6   4
1.34    1.32   -2   6   4    1.25    1.05    1  -6  -4    0.72    0.83
1  -6  -4    0.03    0.64    1  -6  -4   -0.08    0.88   -1   6   4
0.43    0.81   -1   6   4    0.84    0.87   -1   6   4   -0.29    0.69
-1   6   4   -0.94    0.80   -1   6   4    0.82    1.03    0  -6  -4
0.17    0.90    0  -6  -4    1.27    0.84    0  -6  -4    1.18    1.04
0   6   4    0.46    0.95    0   6   4    1.15    1.13    0   6   4
1.05    0.69    0   6   4    2.62    1.29    0   6   4    0.41    0.73
-1  -6  -4   78.90    4.64   -1  -6  -4   80.20    4.45   -1  -6  -4
76.99    3.66    1   6   4   84.18    4.83    1   6   4   82.61
3.66    1   6   4   76.69    3.04    1   6   4   70.77    4.20    1
6   4   75.40    4.33   -2  -6  -4    0.82    0.73   -2  -6  -4
1.73    1.30   -2  -6  -4    2.60    1.25    2   6   4    1.92    1.04
2   6   4    1.48    0.42    2   6   4    1.88    1.13    2   6   4
-0.43    0.94    2   6   4    2.05    0.91   -3  -6  -4    0.90
1.04   -3  -6  -4    1.26    1.53   -3  -6  -4    0.16    0.63   -3
-6  -4    2.03    0.86    3   6   4    4.04    1.54    3   6   4
0.60    0.78    3   6   4    3.73    1.31    3   6   4    1.26    0.93
-4  -6  -4    3.03    0.94   -4  -6  -4    1.72    1.61    4   6   4
1.59    1.31    4   6   4    3.70    1.41    4   6   4    3.15    1.12
4   6   4    3.96    1.19   -5  -6  -4   -0.72    1.31   -5  -6  -4
1.53    0.83    5   6   4    2.22    1.40    5   6   4    1.13    1.18
5   6   4    1.48    0.89    5   6   4    0.38    0.98   -6  -6  -4
0.28    1.73    6   6   4   -1.21    0.83    6   6   4   -0.23    0.93
6   6   4    0.27    0.80    6   6   4   -0.27    1.13   -7  -6  -4
1.72    2.15    7   6   4   -0.08    1.08    7   6   4    0.05    0.98
7   6   4   -1.16    0.63    7   6   4    1.26    1.60   -8  -6  -4
0.25    2.26    8   6   4    2.22    0.89    8   6   4    2.84    1.58
8   6   4    5.73    2.32    8   6   4    2.04    1.41    9   6   4
3.01    1.77    9   6   4    3.30    1.86    9   6   4    0.64    1.63
10   6   4    0.35    1.58   10   6   4    1.60    2.09   10   6   4
4.93    2.16   11   6   4   10.39    3.35   11   6   4    4.92    2.33
11   6   4    8.90    2.94   -8   7   4   13.55    3.29   -8   7   4
23.40    4.51   -7   7   4   34.10    5.04   -7   7   4   38.27
4.58   -6   7   4   46.28    5.28   -6   7   4   43.00    4.45   -5
7   4   90.62    5.69   -5   7   4   92.17    6.56    4  -7  -4
113.30    4.84   -4   7   4  102.58    5.83   -4   7   4  112.08
5.30   -4   7   4  107.07    7.04    3  -7  -4  151.05    7.70    3
-7  -4  156.59    6.12   -3   7   4  152.42    6.24   -3   7   4
151.53    7.64   -3   7   4  144.74    8.05    2  -7  -4  205.26
8.67    2  -7  -4  199.66    7.59    2  -7  -4  184.69    7.13   -2
7   4  184.66    8.62   -2   7   4  191.23    7.53   -2   7   4
194.76    9.21   -2   7   4  187.12    7.00    1  -7  -4  248.92
9.68    1  -7  -4  243.38    8.47    1  -7  -4  253.17    9.43   -1
7   4  229.56   10.32   -1   7   4  234.57    9.97   -1   7   4
243.79    8.66   -1   7   4  241.76    8.11    0  -7  -4  329.88
11.96    0  -7  -4  332.44   12.24    0  -7  -4  326.56   10.60    0
7   4  345.45   10.87    0   7   4  337.57   12.02    0   7   4
330.94   10.13    0   7   4  312.44   12.56    0   7   4  334.84
12.40   -1  -7  -4  154.92    6.10   -1  -7  -4  160.74    7.57    1
7   4  164.06    5.55    1   7   4  150.25    7.21    1   7   4
154.87    7.56    1   7   4  166.54    6.26    1   7   4  167.80
7.22   -2  -7  -4  173.75    8.29   -2  -7  -4  167.17    6.39   -2
-7  -4  160.05    7.29    2   7   4  166.83    7.99    2   7   4
178.79    6.65    2   7   4  173.53    7.58    2   7   4  174.78
7.53    2   7   4  174.21    5.37   -3  -7  -4  140.96    7.60   -3
-7  -4  150.00    6.92   -3  -7  -4  138.59    5.53    3   7   4
139.91    6.57    3   7   4  130.05    5.71    3   7   4  141.10
6.86    3   7   4  150.99    7.26   -4  -7  -4   78.81    5.84   -4
-7  -4   89.08    4.09    4   7   4   82.90    4.74    4   7   4
83.63    5.25    4   7   4   83.52    4.42    4   7   4   93.26
5.57   -5  -7  -4   53.97    3.10    5   7   4   51.17    3.55    5
7   4   52.44    4.47    5   7   4   54.50    4.55    5   7   4
49.20    3.49   -6  -7  -4   49.01    3.09   -6  -7  -4   53.07
5.59    6   7   4   58.34    4.58    6   7   4   60.44    4.69    6
7   4   57.30    3.70    6   7   4   53.05    3.83   -7  -7  -4
3.46    2.57    7   7   4    7.27    1.98    7   7   4    4.59    1.36
7   7   4    7.89    2.19    7   7   4    5.78    2.20   -8  -7  -4
2.01    2.72    8   7   4    2.18    1.84    8   7   4    0.82    1.33
8   7   4    0.48    1.24    9   7   4    6.24    2.26    9   7   4
8.64    2.82    9   7   4    8.62    2.42   10   7   4    3.65    2.06
10   7   4    2.25    1.90   10   7   4    6.52    2.86   11   7   4
2.30    2.17   11   7   4    2.77    2.21   11   7   4    1.78    2.41
-8   8   4   -0.31    2.10   -8   8   4   -0.94    1.94   -7   8   4
0.77    2.02   -7   8   4    0.31    1.46   -6   8   4    3.81    2.39
-6   8   4    5.72    2.25   -5   8   4    1.11    1.74   -5   8   4
3.12    1.64   -4   8   4    3.36    1.97   -4   8   4    3.87    1.49
-4   8   4    4.32    1.84    3  -8  -4   21.12    2.23   -3   8   4
20.81    3.51   -3   8   4   21.71    2.42    2  -8  -4   24.57
2.40   -2   8   4   25.11    3.49   -2   8   4   25.15    3.69   -2
8   4   27.90    2.56    1  -8  -4   43.35    3.05   -1   8   4
41.51    4.38   -1   8   4   40.24    2.82   -1   8   4   47.50
4.20    0  -8  -4   44.90    3.04    0  -8  -4   48.18    4.05    0
-8  -4   40.68    3.52    0   8   4   35.53    3.95    0   8   4
40.80    2.70    0   8   4   48.66    3.92    0   8   4   45.26
3.60   -1  -8  -4   24.77    2.77   -1  -8  -4   25.74    3.32   -1
-8  -4   19.01    2.20    1   8   4   22.29    2.37    1   8   4
21.41    1.89    1   8   4   20.78    3.12    1   8   4   28.00
3.25    1   8   4   23.60    2.73   -2  -8  -4   27.00    2.40   -2
-8  -4   22.18    3.38   -2  -8  -4   21.87    2.59    2   8   4
23.41    2.74    2   8   4   23.27    1.68    2   8   4   26.69
3.05    2   8   4   21.57    3.22    2   8   4   21.40    2.34   -3
-8  -4   17.30    3.35   -3  -8  -4    9.08    2.11   -3  -8  -4
11.88    1.74    3   8   4   10.36    2.16    3   8   4   16.85
2.55    3   8   4   16.68    2.85    3   8   4   13.75    1.98   -4
-8  -4   36.19    2.76   -4  -8  -4   28.77    4.16   -4  -8  -4
30.71    3.45    4   8   4   35.79    3.93    4   8   4   33.37
3.34    4   8   4   30.20    2.85    4   8   4   33.61    3.53   -5
-8  -4   62.54    3.69   -5  -8  -4   63.41    6.03    5   8   4
63.71    4.17    5   8   4   72.34    4.59    5   8   4   67.15
4.91    5   8   4   67.58    5.00   -6  -8  -4   31.87    5.02   -6
-8  -4   34.65    2.80    6   8   4   37.78    4.26    6   8   4
34.28    3.29    6   8   4   31.65    3.34    6   8   4   32.37
3.95   -7  -8  -4    7.11    1.63   -7  -8  -4    6.51    3.15    7
8   4    4.79    1.86    7   8   4    6.57    2.12    7   8   4
7.71    2.41    8   8   4    6.45    2.10    8   8   4    2.26    1.68
8   8   4    7.97    2.67    9   8   4   -1.15    1.28    9   8   4
-0.18    1.78    9   8   4    0.99    1.53   10   8   4    1.05
1.74   10   8   4   -0.18    1.58   10   8   4    1.39    2.09   -7
9   4    1.72    2.31   -7   9   4   -0.33    2.00   -6   9   4
2.93    2.02   -6   9   4    1.08    2.01   -5   9   4   20.92    4.05
-4   9   4   37.65    4.97   -3   9   4   36.72    3.18   -3   9   4
39.67    4.84    2  -9  -4   47.66    3.26   -2   9   4   50.52
5.20   -2   9   4   40.81    3.25    1  -9  -4   91.52    4.64   -1
9   4   84.83    6.15   -1   9   4   88.92    4.57   -1   9   4
87.39    5.95    0  -9  -4  100.96    4.91    0   9   4   99.76
6.42    0   9   4  107.65    6.40    0   9   4   93.75    4.61   -1
-9  -4   83.58    4.39   -1  -9  -4   95.41    6.05    1   9   4
76.96    5.42    1   9   4   82.06    5.69    1   9   4   80.76
3.95   -2  -9  -4   56.01    3.51   -2  -9  -4   58.79    5.23    2
9   4   62.46    3.05    2   9   4   50.93    4.49    2   9   4
42.15    4.60   -3  -9  -4  145.34    6.30   -3  -9  -4  147.61
8.70   -3  -9  -4  149.44    7.27    3   9   4  147.95    6.79    3
9   4  163.92    7.50    3   9   4  151.89    8.23    3   9   4
155.68    7.82   -4  -9  -4  138.86    7.17   -4  -9  -4  144.12
8.79   -4  -9  -4  134.43    5.97    4   9   4  132.76    6.45    4
9   4  134.01    7.22    4   9   4  143.48    7.35    4   9   4
140.30    7.79   -5  -9  -4   62.91    6.58   -5  -9  -4   74.86
4.24    5   9   4   78.23    5.17    5   9   4   76.85    5.64    5
9   4   80.05    5.52    5   9   4   76.22    4.79   -6  -9  -4
28.67    2.87   -6  -9  -4   27.99    5.04   -6  -9  -4   29.27
2.86    6   9   4   31.16    3.44    6   9   4   26.48    3.83    6
9   4   28.88    3.95   -7  -9  -4   18.47    2.47    7   9   4
21.17    3.16    7   9   4   19.55    3.53    7   9   4   30.81
4.18    8   9   4    7.44    2.28    8   9   4    4.74    2.01    8
9   4    8.89    2.81    9   9   4   13.69    3.54    9   9   4
15.21    3.49    9   9   4   20.99    3.61   10   9   4    4.90
2.61   10   9   4    0.22    1.84   10   9   4    1.74    2.27   -6
10   4    6.11    2.95   -5  10   4   -1.32    1.49   -4  10   4
5.25    2.37   -3  10   4   21.67    3.97   -2  10   4   24.71    4.13
1 -10  -4    6.73    1.76   -1  10   4    5.19    2.13   -1  10   4
4.80    1.51    0 -10  -4   22.09    2.48    0  10   4   24.27    2.51
0  10   4   22.50    3.77    0  10   4   17.28    3.21   -1 -10  -4
39.45    3.18    1  10   4   44.02    2.99    1  10   4   35.92
4.18    1  10   4   49.41    4.90   -2 -10  -4   85.60    6.70   -2
-10  -4   89.82    4.76    2  10   4   72.84    5.81    2  10   4
88.28    4.02    2  10   4   78.18    5.63   -3 -10  -4  114.65
5.45   -3 -10  -4   95.98    7.37    3  10   4  109.21    6.68    3
10   4  105.31    6.97   -4 -10  -4  106.89    8.02   -4 -10  -4
88.61    4.91    4  10   4   92.06    6.47    4  10   4  100.07
6.31   -5 -10  -4   46.38    3.48   -5 -10  -4   49.49    6.36    5
10   4   48.29    5.03    5  10   4   54.69    4.85    6  10   4
63.50    5.74    6  10   4   50.96    4.50    6  10   4   61.11
5.50    7  10   4   62.75    5.91    7  10   4   68.26    5.17    7
10   4   77.52    6.47    8  10   4   37.41    4.86    8  10   4
37.29    4.37    8  10   4   43.94    5.26    9  10   4   31.68
4.48    9  10   4   40.48    5.30    9  10   4   34.50    5.06   -5
11   4    4.08    2.65   -4  11   4    1.64    2.15   -3  11   4
2.96    2.19   -2  11   4    0.05    1.67    1 -11  -4    7.19    1.76
-1  11   4    3.17    2.00    0 -11  -4    5.96    1.67    0  11   4
4.11    2.01    1  11   4    7.92    2.47    1  11   4    8.16    2.58
1  11   4   11.37    1.96    2  11   4   25.52    2.37    2  11   4
18.03    3.48    2  11   4   24.14    3.79   -3 -11  -4   10.51
3.78    3  11   4   21.43    3.81   -4 -11  -4   12.88    4.07    4
11   4   22.65    3.81    5  11   4   20.01    3.71    6  11   4
12.26    2.97    7  11   4    4.78    2.26    8  11   4    5.11
2.41   -4  12   4    5.25    2.73   -3  12   4    3.03    2.44   -2
12   4    2.67    2.17   -1  12   4    2.61    2.04    0  12   4
14.71    3.45    1  12   4   22.25    4.08    2  12   4   26.74
4.41    3  12   4   48.69    5.62    4  12   4   38.05    5.01    5
12   4   56.64    5.92    6  12   4   77.62    6.86    7  12   4
80.81    7.34   -2  13   4    2.07    2.40   -1  13   4    0.40
1.92    0  13   4    0.10    1.87    1  13   4    1.21    1.94    2
13   4    2.15    2.08    3  13   4    1.61    2.19    4  13   4
-0.66    1.71    5  13   4    2.57    2.17    6  13   4   -0.60
1.69   -2 -13   5   52.54    5.70    1  13  -5   26.61    5.56   -1
-13   5   33.81    4.81    5  12  -5    6.17    2.92   -5 -12   5
8.70    2.95    4  12  -5   -2.88    2.13    4  12  -5    2.70    2.26
-4 -12   5    0.24    1.71    3  12  -5    5.20    2.51    3  12  -5
-0.62    2.53   -3 -12   5    1.55    2.00    2  12  -5   14.40
4.24    2  12  -5    4.89    2.61   -2 -12   5    8.17    2.68    1
12  -5    5.71    2.50    1  12  -5    4.09    2.95   -1 -12   5
14.18    3.22    0  12  -5    0.26    2.71    0  12  -5    1.32
2.11    0 -12   5    1.18    2.05   -1  12  -5   12.87    4.06   -1
12  -5   10.87    3.48    1 -12   5    9.31    2.84   -2  12  -5
-0.15    1.90   -2  12  -5    0.07    2.48    2 -12   5    2.35
2.04   -3  12  -5    0.11    2.25   -3  12  -5    0.34    3.07   -3
12  -5    2.18    2.35    3 -12   5   -0.41    1.71    6  11  -5
12.23    3.33   -6 -11   5    5.76    2.49    5  11  -5    9.60
3.15   -5 -11   5   14.55    3.28    4  11  -5   23.88    4.16    4
11  -5   34.38    5.26   -4 -11   5   34.03    4.40    3  11  -5
52.65    6.22    3  11  -5   51.76    5.71   -3 -11   5   49.78
5.21    2  11  -5  116.25    7.84    2  11  -5  128.81    9.12   -2
-11   5  121.11    7.42    1  11  -5  109.35    8.46    1  11  -5
89.67    6.84   -1 -11   5  106.33    6.98    0  11  -5   68.40
7.26    0  11  -5   62.31    5.90    0 -11   5   58.29    5.45   -1
11  -5   83.21    8.15   -1  11  -5   75.85    6.58    1 -11   5
77.71    6.38   -2  11  -5   78.62    6.83   -2  11  -5   76.89
8.06    2 -11   5   79.23    6.50   -3  11  -5   78.56    6.83   -3
11  -5   84.74    8.34   -3  11  -5   67.41    6.65    3 -11   5
64.47    6.19   -4  11  -5   80.39    7.03   -4  11  -5   66.63
7.66   -4  11  -5   52.44    6.20    4 -11   5   63.67    6.31   -5
11  -5   53.42    6.07   -5  11  -5   57.59    7.26    5 -11   5
40.90    5.39   -8 -10   5    1.29    1.98    7  10  -5   -0.50
1.79   -7 -10   5    0.85    1.73    6  10  -5    1.54    1.89   -6
-10   5    2.12    1.92    5  10  -5   -0.25    1.78   -5 -10   5
-0.52    1.25    4  10  -5    0.59    2.23    4  10  -5    2.92
1.79   -4 -10   5   -0.48    1.19    3  10  -5   -0.16    1.83    3
10  -5    0.33    1.53   -3 -10   5    1.51    1.68   -3 -10   5
1.01    1.50    2  10  -5    3.74    2.35    2  10  -5    6.01    2.21
2  10  -5    2.75    1.90   -2 -10   5    3.58    1.90   -2 -10   5
6.45    2.35    1  10  -5   11.56    2.96    1  10  -5   11.63    3.48
1  10  -5   10.56    2.56   -1 -10   5   16.83    3.21    0  10  -5
0.22    2.14    0  10  -5   -0.26    1.44    0 -10   5    2.63    1.75
-1  10  -5    0.48    1.63   -1  10  -5    2.01    2.27    1 -10   5
2.29    1.67   -2  10  -5    0.38    2.28   -2  10  -5    0.74    1.72
2 -10   5    1.40    1.62   -3  10  -5    7.04    3.00   -3  10  -5
1.33    1.84    3 -10   5    3.41    1.88   -4  10  -5   11.90    3.16
-4  10  -5    5.44    3.04   -4  10  -5    4.34    2.37    4 -10   5
2.81    1.90   -5  10  -5   17.00    3.72   -5  10  -5   23.18    4.89
-5  10  -5   15.50    3.74    5 -10   5   11.44    3.25    5 -10   5
24.15    4.18   -6  10  -5    5.15    2.57   -6  10  -5    4.02
2.31   -6  10  -5   -3.86    2.20    6 -10   5    1.54    2.20    6
-10   5    4.61    2.21    8   9  -5   31.53    4.76   -8  -9   5
33.82    4.66    7   9  -5   31.09    4.55   -7  -9   5   20.86
3.80    6   9  -5    1.01    1.58   -6  -9   5   -0.03    1.28    5
9  -5    5.87    2.28   -5  -9   5    6.59    2.22    4   9  -5
14.56    2.88    4   9  -5    9.95    2.73    4   9  -5    7.52
2.83   -4  -9   5   12.56    3.24   -4  -9   5   11.00    2.51    3
9  -5   13.94    2.85    3   9  -5   10.40    2.98    3   9  -5
14.03    3.04   -3  -9   5    5.89    2.43   -3  -9   5   14.46
2.83    2   9  -5   20.09    3.07    2   9  -5   20.70    3.51    2
9  -5   22.67    4.10   -2  -9   5   21.78    3.53   -2  -9   5
19.33    3.21    1   9  -5   90.32    6.99    1   9  -5   93.62
5.54    1   9  -5   98.89    6.30   -1  -9   5   91.78    5.95   -1
-9   5   94.07    5.97    0   9  -5   76.59    5.70    0   9  -5
88.44    7.01    0  -9   5   80.56    5.62   -1   9  -5   61.23
6.37   -1   9  -5   58.11    5.24    1  -9   5   62.17    5.15   -2
9  -5  164.72    8.87   -2   9  -5  165.26   10.15    2  -9   5
164.44    8.64   -3   9  -5   91.36    7.86   -3   9  -5   84.56
6.28    3  -9   5   81.48    5.91   -4   9  -5   72.12    7.18   -4
9  -5   71.03    6.26   -4   9  -5   76.54    6.33    4  -9   5
71.90    6.19    4  -9   5   75.05    6.19   -5   9  -5   64.82
5.86   -5   9  -5   64.15    6.04   -5   9  -5   62.08    6.94   -5
9  -5   64.81    6.02    5  -9   5   56.40    5.70    5  -9   5
71.75    6.32   -6   9  -5   45.74    5.63   -6   9  -5   67.06
6.31   -6   9  -5   59.36    6.86   -6   9  -5   55.18    5.78    6
-9   5   47.76    5.67    6  -9   5   50.97    5.60   -7   9  -5
58.08    6.23   -7   9  -5   60.01    7.02   -7   9  -5   54.67
6.09   -7   9  -5   61.99    6.34    7  -9   5   41.05    5.57    7
-9   5   55.25    6.10    9   8  -5    3.01    2.17    9   8  -5
-0.64    2.58   -9  -8   5    2.29    2.03    8   8  -5    1.60
2.30    8   8  -5    1.70    1.80   -8  -8   5   -0.08    1.71    7
8  -5   -0.15    1.59   -7  -8   5   10.94    2.72    6   8  -5
10.29    2.70   -6  -8   5   11.47    2.67    5   8  -5    3.09
1.90    5   8  -5    0.54    1.34   -5  -8   5    2.41    1.98   -5
-8   5   -0.27    1.26    4   8  -5    1.56    1.97    4   8  -5
-2.02    1.61    4   8  -5   -0.61    1.30   -4  -8   5    2.11
1.86   -4  -8   5   -0.79    1.03    3   8  -5   -1.31    1.14    3
8  -5   -1.09    1.54    3   8  -5    1.20    1.58   -3  -8   5
-0.62    1.33   -3  -8   5   -0.74    0.87    2   8  -5    1.06
1.34    2   8  -5   -1.97    1.34    2   8  -5   -0.93    1.40   -2
-8   5    0.13    1.29   -2  -8   5    0.44    1.08    1   8  -5
15.90    2.44    1   8  -5   17.63    3.71    1   8  -5    7.58
2.20   -1  -8   5   14.63    2.67   -1  -8   5   10.64    2.48    0
8  -5   13.68    2.76    0   8  -5   13.81    3.17    0  -8   5
9.57    2.17    0  -8   5   14.87    2.73   -1   8  -5    9.11    2.30
-1   8  -5    7.46    2.66    1  -8   5    6.90    2.09   -2   8  -5
43.13    5.35   -2   8  -5   58.71    5.11    2  -8   5   69.90
5.09   -3   8  -5   23.37    4.30   -3   8  -5   32.51    4.14    3
-8   5   28.88    3.82    3  -8   5   21.40    3.51   -4   8  -5
17.90    3.26   -4   8  -5   13.96    3.01   -4   8  -5   13.72
2.77   -4   8  -5   16.36    3.74    4  -8   5   17.38    3.23    4
-8   5   13.89    2.97   -5   8  -5   29.78    4.35   -5   8  -5
35.21    4.46   -5   8  -5   33.71    4.24   -5   8  -5   38.25
5.39    5  -8   5   38.06    4.63    5  -8   5   30.69    4.37   -6
8  -5   52.65    5.45   -6   8  -5   55.83    5.37   -6   8  -5
51.17    5.50   -6   8  -5   43.33    5.81    6  -8   5   48.83
5.26    6  -8   5   42.63    5.06   -7   8  -5   50.44    5.65   -7
8  -5   34.68    4.93   -7   8  -5   42.02    5.22   -7   8  -5
34.07    5.37    7  -8   5   31.31    4.78    7  -8   5   30.72
4.74   -8   8  -5   42.63    5.68   -8   8  -5   36.18    5.29   -8
8  -5   46.71    5.82    8  -8   5   39.52    5.40    8  -8   5
40.86    5.43    9   7  -5   53.98    5.72    9   7  -5   72.79
7.25   -9  -7   5   70.80    6.11    8   7  -5   58.73    5.56    8
7  -5   63.94    6.45   -8  -7   5   44.30    4.95    7   7  -5
43.99    4.68    7   7  -5   44.90    5.28   -7  -7   5   50.03
4.91   -7  -7   5   51.13    3.19    6   7  -5   52.81    5.33    6
7  -5   55.51    4.60    6   7  -5   70.20    5.26   -6  -7   5
59.66    5.14   -6  -7   5   58.63    6.10    5   7  -5    4.44
1.83    5   7  -5    6.34    2.18    5   7  -5    4.59    2.18   -5
-7   5    6.89    2.16   -5  -7   5    3.14    1.98    4   7  -5
11.69    2.79    4   7  -5    9.77    2.33    4   7  -5   13.31
2.71   -4  -7   5   10.13    2.76   -4  -7   5    9.93    2.25    3
7  -5    4.02    1.73    3   7  -5    1.98    1.69    3   7  -5
3.96    2.14   -3  -7   5    1.76    1.67   -3  -7   5    4.32    1.55
2   7  -5    4.97    1.84    2   7  -5    3.54    1.71    2   7  -5
1.35    1.67   -2  -7   5    3.67    1.77   -2  -7   5    7.29    1.92
1   7  -5    2.00    1.53    1   7  -5    1.51    1.76    1   7  -5
-0.42    1.12   -1  -7   5    0.56    1.23   -1  -7   5    1.96
1.31    0   7  -5   13.91    2.60    0   7  -5    7.98    2.68    0
-7   5   13.27    2.41    0  -7   5   14.83    2.66   -1   7  -5
19.65    3.61   -1   7  -5   17.00    2.86    1  -7   5   23.33
3.21    1  -7   5   29.91    3.02   -2   7  -5   12.75    2.30   -2
7  -5   14.30    2.76   -2   7  -5   10.90    2.84    2  -7   5
14.88    2.77   -3   7  -5   90.99    5.26   -3   7  -5   77.27
5.42   -3   7  -5   80.23    6.31    3  -7   5   88.28    5.67    3
-7   5   81.35    5.55   -4   7  -5   47.82    4.65   -4   7  -5
44.60    5.17   -4   7  -5   42.38    4.06    4  -7   5   42.50
4.49    4  -7   5   50.82    4.65   -5   7  -5   39.54    4.11   -5
7  -5   38.40    4.38   -5   7  -5   30.99    4.07   -5   7  -5
38.88    5.04    5  -7   5   29.50    4.02    5  -7   5   36.69
4.34   -6   7  -5   35.15    4.96   -6   7  -5   38.22    4.62   -6
7  -5   36.10    4.58   -6   7  -5   40.77    4.51    6  -7   5
34.08    4.38    6  -7   5   33.54    4.38   -7   7  -5   43.64
5.07   -7   7  -5   46.04    5.25   -7   7  -5   60.91    5.76    7
-7   5   50.10    5.39    7  -7   5   49.75    5.25   -8   7  -5
48.92    5.75   -8   7  -5   47.36    5.52   -8   7  -5   44.01
5.44    8  -7   5   42.82    5.32    8  -7   5   43.48    5.30   -9
7  -5   37.35    5.55   -9   7  -5   43.63    5.61   10   6  -5
32.08    5.70   10   6  -5   28.18    4.53  -10  -6   5   34.11
4.82    9   6  -5   35.55    4.64    9   6  -5   40.79    5.99   -9
-6   5   35.96    4.60    8   6  -5   28.34    4.81    8   6  -5
31.23    4.14   -8  -6   5   32.44    4.20    7   6  -5   27.54
4.53    7   6  -5   33.97    3.68    7   6  -5   43.41    4.42   -7
-6   5   35.59    2.78   -7  -6   5   35.08    4.98   -7  -6   5
40.23    4.32    6   6  -5   70.27    4.93    6   6  -5   64.14
4.85    6   6  -5   70.51    6.04   -6  -6   5   70.64    3.50   -6
-6   5   63.78    4.85   -6  -6   5   63.56    6.04    5   6  -5
25.09    3.23    5   6  -5   23.50    3.58    5   6  -5   22.30
3.01   -5  -6   5   21.08    3.10   -5  -6   5   17.91    3.34    4
6  -5   33.23    3.33    4   6  -5   29.97    3.70    4   6  -5
30.83    3.48    4   6  -5   27.49    3.38   -4  -6   5   34.30
3.58   -4  -6   5   22.35    3.58    3   6  -5   87.58    5.53    3
6  -5   81.59    5.04    3   6  -5   86.97    5.33    3   6  -5
85.88    4.84   -3  -6   5   79.31    5.59   -3  -6   5   82.78
5.11    2   6  -5   18.33    2.74    2   6  -5   20.98    3.14    2
6  -5   16.13    2.29   -2  -6   5   19.00    2.71   -2  -6   5
16.76    2.82    1   6  -5   -0.63    1.03    1   6  -5    1.97
1.59    1   6  -5    2.45    1.35   -1  -6   5   -0.16    1.03   -1
-6   5    2.22    1.24    0   6  -5   11.63    2.65    0   6  -5
7.84    1.92    0  -6   5    9.73    2.08    0  -6   5    6.03    1.70
-1   6  -5   17.97    3.19   -1   6  -5   24.19    2.38   -1   6  -5
20.39    2.89    1  -6   5   20.95    2.55    1  -6   5   22.33
2.88   -2   6  -5   16.34    2.19   -2   6  -5   14.84    3.05   -2
6  -5   14.44    2.64    2  -6   5   15.63    2.64    2  -6   5
20.06    2.91    2  -6   5   18.39    2.28   -3   6  -5   13.75
2.31   -3   6  -5   14.66    3.13   -3   6  -5   16.25    2.76    3
-6   5   16.74    2.76    3  -6   5   15.04    2.62   -4   6  -5
43.17    3.91   -4   6  -5   47.16    4.44   -4   6  -5   52.31
5.17   -4   6  -5   50.29    4.44    4  -6   5   47.03    4.30    4
-6   5   48.36    4.38   -5   6  -5   57.76    4.95   -5   6  -5
56.33    4.98   -5   6  -5   51.59    5.30   -5   6  -5   55.90
4.74    5  -6   5   56.59    4.81    5  -6   5   66.14    5.28   -6
6  -5  112.54    6.90   -6   6  -5  111.78    6.88   -6   6  -5
108.17    6.85   -6   6  -5  102.91    7.33    6  -6   5  111.04
6.82    6  -6   5  129.10    7.20   -7   6  -5   59.02    5.52   -7
6  -5   68.37    5.88    7  -6   5   64.47    5.59    7  -6   5
63.85    5.73   -8   6  -5   90.30    6.56   -8   6  -5   82.80
7.04   -8   6  -5   80.37    6.77    8  -6   5   80.09    6.64    8
-6   5   82.20    6.66   -9   6  -5   85.20    7.14   -9   6  -5
93.73    7.42   -9   6  -5   86.39    7.14    9  -6   5   86.16
7.10   10   5  -5   33.50    5.95   10   5  -5   34.10    4.71  -10
-5   5   37.99    4.91    9   5  -5   40.19    5.94    9   5  -5
38.91    4.73   -9  -5   5   45.15    5.05    8   5  -5   37.40
4.30    8   5  -5   43.24    5.69    8   5  -5   39.28    3.81   -8
-5   5   31.96    4.16    7   5  -5   48.08    5.53    7   5  -5
51.41    4.30    7   5  -5   46.67    4.38   -7  -5   5   45.62
4.50   -7  -5   5   49.70    3.12   -7  -5   5   54.76    5.55    6
5  -5   38.86    3.77    6   5  -5   34.71    3.55    6   5  -5
40.02    4.75   -6  -5   5   39.82    4.02   -6  -5   5   31.50
4.25   -6  -5   5   35.76    2.47    5   5  -5   92.20    6.35    5
5  -5   83.38    5.25    5   5  -5   89.07    5.21    5   5  -5
93.34    5.31   -5  -5   5   97.51    6.42   -5  -5   5   89.68
5.47   -5  -5   5   93.73    3.85    4   5  -5   33.14    3.82    4
5  -5   30.52    3.06    4   5  -5   28.60    3.06    4   5  -5
31.95    3.21   -4  -5   5   25.82    3.55   -4  -5   5   26.08
1.59   -4  -5   5   34.32    3.44    3   5  -5   21.86    2.74    3
5  -5   26.52    3.37    3   5  -5   27.38    2.73    3   5  -5
25.60    2.92   -3  -5   5   28.90    3.51   -3  -5   5   23.23
2.87    2   5  -5   36.46    3.24    2   5  -5   43.46    3.76    2
5  -5   38.18    2.88    2   5  -5   45.85    3.74   -2  -5   5
33.88    3.54   -2  -5   5   32.64    3.20    1   5  -5    9.55
2.20    1   5  -5    9.54    1.98    1   5  -5    8.34    1.46    1
5  -5    6.92    1.71   -1  -5   5    9.64    1.92   -1  -5   5
5.99    1.73    0   5  -5   -1.05    0.77    0   5  -5   -0.83    1.02
0  -5   5    2.83    1.33    0  -5   5    1.20    1.03   -1   5  -5
-0.62    1.05   -1   5  -5   -0.29    0.98   -1   5  -5    2.15
1.05    1  -5   5    3.33    1.37    1  -5   5    0.26    0.84   -2
5  -5    2.18    1.24   -2   5  -5    1.43    1.47   -2   5  -5
2.26    1.15    2  -5   5    1.03    1.18    2  -5   5    2.62    1.36
2  -5   5    1.72    1.05   -3   5  -5   13.73    2.81   -3   5  -5
10.78    2.19   -3   5  -5   15.55    2.27    3  -5   5   14.34
1.97    3  -5   5   12.25    2.25    3  -5   5   14.37    2.49   -4
5  -5   30.65    3.17   -4   5  -5   31.47    3.96   -4   5  -5
33.29    3.49   -4   5  -5   30.80    3.55    4  -5   5   24.48
3.09    4  -5   5   28.57    3.34   -5   5  -5   30.65    3.60   -5
5  -5   27.13    3.85   -5   5  -5   24.98    3.17   -5   5  -5
22.23    3.26    5  -5   5   29.07    3.53    5  -5   5   27.58
3.54   -6   5  -5   -0.02    1.17   -6   5  -5    2.22    1.56   -6
5  -5   -0.24    1.73   -6   5  -5    0.56    1.20    6  -5   5
-0.29    1.25    6  -5   5    0.62    1.30    6  -5   5    1.63
1.41   -7   5  -5    9.17    2.50   -7   5  -5    9.96    2.54   -7
5  -5   10.46    2.60    7  -5   5    6.57    2.09    7  -5   5
9.43    2.43    7  -5   5    7.59    2.38   -8   5  -5   -0.25    1.55
-8   5  -5    2.21    1.75   -8   5  -5    5.53    2.08    8  -5   5
0.66    1.61    8  -5   5    6.67    2.39    8  -5   5    3.12    2.00
-9   5  -5    0.63    1.59   -9   5  -5    1.34    1.84   -9   5  -5
1.43    1.89    9  -5   5   -0.41    1.62  -10   5  -5    5.01    2.73
-10   5  -5   10.48    3.33  -10   5  -5    4.06    2.35   10  -5   5
6.63    2.74   10   4  -5   41.09    4.89   10   4  -5   50.30    6.85
-10  -4   5   41.96    5.21    9   4  -5   75.25    7.59    9   4  -5
75.98    5.74   -9  -4   5   70.61    6.06    8   4  -5   57.32
5.07    8   4  -5   72.38    4.68    8   4  -5   69.09    6.99   -8
-4   5   71.47    6.31   -8  -4   5   68.67    4.00   -8  -4   5
61.02    5.41    7   4  -5  110.65    6.29    7   4  -5  108.43
5.99    7   4  -5  105.25    7.65   -7  -4   5  111.12    4.97   -7
-4   5  112.07    7.28   -7  -4   5  111.93    6.54    6   4  -5
148.76    8.85    6   4  -5  146.86    7.22    6   4  -5  159.29
7.17   -6  -4   5  160.56    5.90   -6  -4   5  145.57    7.48   -6
-4   5  151.78    8.39    5   4  -5  237.52   11.10    5   4  -5
240.96    9.19    5   4  -5  228.35    9.35    5   4  -5  240.02
9.23   -5  -4   5  230.38   10.64   -5  -4   5  232.74    9.62   -5
-4   5  241.23    7.63    4   4  -5  137.77    7.67    4   4  -5
143.96    6.28    4   4  -5  137.14    6.33   -4  -4   5  134.42
7.30   -4  -4   5  132.15    6.48    3   4  -5   82.24    4.40    3
4  -5   89.87    4.84    3   4  -5   88.85    4.74    3   4  -5
89.09    5.66   -3  -4   5   87.93    4.87   -3  -4   5   79.79
5.23    2   4  -5  122.60    6.12    2   4  -5  118.70    5.44    2
4  -5  112.89    5.70    2   4  -5  122.54    4.97   -2  -4   5
111.07    5.99   -2  -4   5  105.04    5.49    1   4  -5   71.31
4.08    1   4  -5   74.35    4.02    1   4  -5   74.04    3.14    1
4  -5   67.95    4.21   -1  -4   5   62.51    4.16   -1  -4   5
61.22    3.90    0   4  -5   69.86    2.32    0   4  -5   67.27
4.31    0   4  -5   63.50    3.89    0   4  -5   76.08    2.97    0
4  -5   76.61    3.81    0  -4   5   64.75    4.01    0  -4   5
61.44    3.99   -1   4  -5   32.17    2.13   -1   4  -5   31.07
3.11   -1   4  -5   28.44    2.74   -1   4  -5   28.03    2.14    1
-4   5   31.89    2.95    1  -4   5   29.88    2.75   -2   4  -5
-0.26    1.13   -2   4  -5    0.65    0.77   -2   4  -5   -0.43
0.79   -2   4  -5    0.30    0.80    2  -4   5    1.05    1.11    2
-4   5    0.31    0.93    2  -4   5    2.26    1.02   -3   4  -5
10.75    2.08   -3   4  -5    6.48    1.56   -3   4  -5   11.24
2.43    3  -4   5   10.65    1.82    3  -4   5    6.55    1.70    3
-4   5    9.42    1.62    3  -4   5    4.04    1.59   -4   4  -5
11.52    1.76   -4   4  -5   13.91    2.17   -4   4  -5    9.55
2.09   -4   4  -5   10.81    2.21   -4   4  -5   10.53    2.46    4
-4   5   10.61    1.71    4  -4   5    9.13    1.92    4  -4   5
10.05    2.17    4  -4   5   10.19    2.08   -5   4  -5   53.53
4.08   -5   4  -5   54.94    4.32   -5   4  -5   55.61    4.75   -5
4  -5   46.81    4.17    5  -4   5   49.33    4.11    5  -4   5
53.27    4.08    5  -4   5   51.65    4.31   -6   4  -5   24.38
3.30   -6   4  -5   20.83    3.06   -6   4  -5   22.28    3.17   -6
4  -5   23.09    3.44    6  -4   5   16.40    2.82    6  -4   5
20.37    3.07    6  -4   5   16.81    2.77   -7   4  -5   50.35
4.70   -7   4  -5   34.40    4.07   -7   4  -5   49.26    4.65    7
-4   5   46.16    4.40    7  -4   5   40.20    4.31    7  -4   5
41.61    4.42   -8   4  -5   76.06    5.63   -8   4  -5   57.77
5.40   -8   4  -5   73.01    5.74    8  -4   5   62.64    5.73    8
-4   5   81.46    5.76    8  -4   5   70.28    5.70   -9   4  -5
71.79    6.16   -9   4  -5   62.19    5.88   -9   4  -5   71.93
6.46    9  -4   5   74.50    6.49    9  -4   5   64.30    5.95  -10
4  -5   80.89    6.98  -10   4  -5   72.27    6.64  -10   4  -5
80.34    7.23   10  -4   5   75.43    7.00   10  -4   5   77.15
6.72   10   3  -5    3.31    3.09   10   3  -5    9.65    2.77  -10
-3   5   13.55    3.39    9   3  -5    8.99    2.44    9   3  -5
3.77    2.97   -9  -3   5   13.28    3.00   -9  -3   5   14.38    3.29
8   3  -5    6.01    2.01    8   3  -5    3.99    1.84    8   3  -5
5.84    3.11   -8  -3   5    7.55    2.54   -8  -3   5    3.34    1.28
-8  -3   5    5.76    2.05    7   3  -5   10.84    2.39    7   3  -5
12.13    3.34    7   3  -5   10.80    2.39   -7  -3   5    8.59
2.44   -7  -3   5   12.67    2.59   -7  -3   5   11.17    1.72    6
3  -5    6.94    2.17    6   3  -5    7.35    2.85    6   3  -5
9.58    2.08   -6  -3   5    8.23    1.42   -6  -3   5    7.13    2.20
-6  -3   5   11.15    2.27    5   3  -5    0.34    0.99    5   3  -5
-0.60    1.86    5   3  -5    1.32    1.49   -5  -3   5    0.87
1.18   -5  -3   5    0.69    1.40   -5  -3   5   -0.09    0.62    4
3  -5   45.18    3.16    4   3  -5   37.69    4.18    4   3  -5
40.20    3.21   -4  -3   5   31.62    3.07   -4  -3   5   39.46
2.09   -4  -3   5   37.48    3.73    3   3  -5    3.14    1.14    3
3  -5    3.77    1.37    3   3  -5    2.15    1.81   -3  -3   5
1.59    1.19   -3  -3   5    1.52    0.45   -3  -3   5    2.79    1.17
2   3  -5    9.51    1.56    2   3  -5   12.58    1.55    2   3  -5
11.84    2.31   -2  -3   5    9.10    1.89   -2  -3   5   10.16
1.80    1   3  -5   43.28    2.79    1   3  -5   38.49    3.00    1
3  -5   40.15    2.02    1   3  -5   42.57    3.09   -1  -3   5
40.45    2.95   -1  -3   5   41.87    3.15    0   3  -5    0.06
0.72    0   3  -5   -0.12    0.79    0   3  -5    0.47    0.84    0
3  -5    0.59    0.44    0  -3   5   -0.40    0.71    0  -3   5
-0.25    0.67   -1   3  -5    5.70    1.36   -1   3  -5    2.34
1.16   -1   3  -5    3.96    0.87   -1   3  -5    3.35    1.04    1
-3   5    3.25    1.09    1  -3   5    5.99    1.37    1  -3   5
6.15    1.28    1  -3   5    6.77    1.05    1  -3   5    7.80    1.59
-2   3  -5    5.22    1.53   -2   3  -5    4.93    1.13   -2   3  -5
5.26    1.18   -2   3  -5    4.74    1.40    2  -3   5    7.57    1.53
2  -3   5    7.06    1.41    2  -3   5    9.46    1.42    2  -3   5
6.82    1.56    2  -3   5    3.44    1.15   -3   3  -5    1.39    1.01
-3   3  -5    0.82    1.29   -3   3  -5    1.25    0.96   -3   3  -5
2.05    1.05    3  -3   5    3.60    1.20    3  -3   5    0.66    0.97
3  -3   5    0.88    0.89    3  -3   5    1.05    0.96    3  -3   5
0.29    0.74   -4   3  -5    0.67    1.03   -4   3  -5    1.77    0.99
-4   3  -5    2.11    1.11   -4   3  -5    0.17    1.04   -4   3  -5
0.73    1.24    4  -3   5    2.90    1.34    4  -3   5    1.97    1.14
4  -3   5    3.26    1.14    4  -3   5    4.40    1.33    4  -3   5
1.42    1.06   -5   3  -5    8.44    2.10   -5   3  -5    4.70    1.61
-5   3  -5   10.38    1.80   -5   3  -5    8.12    2.01   -5   3  -5
7.62    1.90    5  -3   5    8.18    1.86    5  -3   5   11.27    1.98
5  -3   5    8.65    1.93    5  -3   5   13.33    2.31   -6   3  -5
0.80    1.53   -6   3  -5   -0.29    1.05   -6   3  -5    0.40    0.99
-6   3  -5    1.96    1.40    6  -3   5    2.11    1.36    6  -3   5
0.42    1.07    6  -3   5    0.95    1.19    6  -3   5   -0.47    1.15
-7   3  -5    8.42    2.15   -7   3  -5    8.96    2.23   -7   3  -5
9.64    2.45    7  -3   5   10.38    2.40    7  -3   5    5.88    1.92
7  -3   5    8.00    2.20   -8   3  -5   -0.40    1.25   -8   3  -5
-0.56    1.25   -8   3  -5   -1.55    1.17    8  -3   5    0.99
1.59    8  -3   5   -0.23    1.25   -9   3  -5    3.04    2.09   -9
3  -5    1.53    1.64   -9   3  -5    7.02    2.38    9  -3   5
4.08    2.13    9  -3   5    1.68    1.82  -10   3  -5    2.20    1.99
-10   3  -5    8.53    2.85  -10   3  -5    3.60    2.20   10  -3   5
3.64    2.14   10  -3   5    5.11    2.60  -11   3  -5    3.76    2.64
-11   3  -5    7.55    2.84   11  -3   5    4.37    2.78   11   2  -5
3.88    2.34   11   2  -5    0.37    2.61  -11  -2   5    2.09    1.95
10   2  -5   21.07    3.70   10   2  -5   36.73    6.09  -10  -2   5
26.84    4.31    9   2  -5   77.09    5.53    9   2  -5   65.32
7.30   -9  -2   5   74.93    6.15    8   2  -5   95.36    5.04    8
2  -5   88.78    5.57    8   2  -5   85.99    7.59   -8  -2   5
83.92    5.97   -8  -2   5   85.09    4.55   -8  -2   5   81.63
5.85    7   2  -5   92.40    5.06    7   2  -5   70.67    6.69    7
2  -5   83.47    5.20   -7  -2   5   81.56    4.20   -7  -2   5
93.03    5.79   -7  -2   5   92.44    5.97    6   2  -5  155.97
9.17    6   2  -5  154.77    7.11    6   2  -5  159.56    7.02   -6
-2   5  166.00    6.09   -6  -2   5  154.66    7.54   -6  -2   5
146.50    7.83    5   2  -5  166.99    6.92    5   2  -5  160.62
8.88    5   2  -5  157.31    6.86   -5  -2   5  160.74    5.75   -5
-2   5  164.22    7.82   -5  -2   5  155.52    7.26    4   2  -5
164.35    8.45    4   2  -5  156.82    6.53    4   2  -5  158.21
6.43   -4  -2   5  160.64    6.94   -4  -2   5  169.13    5.39   -4
-2   5  142.68    7.22    3   2  -5  211.41    9.56    3   2  -5
215.78    7.68    3   2  -5  233.98    7.94   -3  -2   5  223.29
6.40   -3  -2   5  231.83    8.47   -3  -2   5  219.83    9.10    2
2  -5  267.95    8.77    2   2  -5  264.58   10.19    2   2  -5
254.14    8.16   -2  -2   5  263.65    9.29   -2  -2   5  272.78
10.17    1   2  -5  328.79   11.30    1   2  -5  321.56    9.02    1
2  -5  323.06   10.14   -1  -2   5  312.80   11.41   -1  -2   5
328.07   10.71    0   2  -5  346.57   11.74    0   2  -5  353.48
10.98    0   2  -5  363.15   10.00    0  -2   5  383.01   10.04    0
-2   5  334.96   11.34    0  -2   5  338.58   12.19   -1   2  -5
119.54    5.04   -1   2  -5  122.41    4.37   -1   2  -5  130.52
5.31    1  -2   5  131.39    5.10    1  -2   5  121.57    5.30    1
-2   5  125.76    4.41    1  -2   5  126.91    5.25    1  -2   5
117.12    5.48   -2   2  -5   81.69    3.96   -2   2  -5   73.91
4.21   -2   2  -5   73.45    3.80   -2   2  -5   77.61    3.53    2
-2   5   79.53    4.09    2  -2   5   77.05    3.83    2  -2   5
85.68    4.02    2  -2   5   79.60    3.55    2  -2   5   75.30
4.02   -3   2  -5   33.31    2.60   -3   2  -5   36.35    2.92   -3
2  -5   36.70    2.54   -3   2  -5   37.18    2.71    3  -2   5
38.37    2.72    3  -2   5   34.86    2.51    3  -2   5   31.33
2.73    3  -2   5   35.30    2.68    3  -2   5   35.68    2.64   -4
2  -5   10.11    1.97   -4   2  -5   10.02    1.72   -4   2  -5
10.20    1.81   -4   2  -5    9.97    1.81   -4   2  -5    6.02
1.59    4  -2   5    7.12    1.50    4  -2   5   10.12    1.85    4
-2   5   10.14    1.82    4  -2   5   11.14    1.88    4  -2   5
9.38    1.77   -5   2  -5    3.61    1.36   -5   2  -5    3.73    1.37
-5   2  -5    2.73    1.23   -5   2  -5    6.17    1.68   -5   2  -5
4.10    1.58    5  -2   5    4.92    1.50    5  -2   5    5.09    1.43
5  -2   5    3.13    1.31    5  -2   5    5.19    1.59    5  -2   5
-0.10    0.66   -6   2  -5   -0.51    1.01   -6   2  -5   -1.22
1.20   -6   2  -5   -0.07    1.08   -6   2  -5   -0.55    1.09    6
-2   5   -0.64    0.91    6  -2   5   -1.51    0.91    6  -2   5
-1.13    0.81    6  -2   5   -0.24    1.18   -7   2  -5    1.74
1.33   -7   2  -5    1.03    1.31   -7   2  -5    1.39    1.28    7
-2   5   -0.42    0.99    7  -2   5    2.97    1.62    7  -2   5
-0.22    1.12    7  -2   5    2.79    1.63   -8   2  -5    4.89
1.84   -8   2  -5    7.77    2.40    8  -2   5   12.42    2.61    8
-2   5    7.38    2.24    8  -2   5   11.06    2.70   -9   2  -5
23.92    4.02   -9   2  -5   30.92    4.01    9  -2   5   22.28
3.89    9  -2   5   22.91    3.57    9  -2   5   26.65    3.91  -10
2  -5   37.91    5.21  -10   2  -5   37.06    4.64   10  -2   5
35.22    4.65   10  -2   5   39.47    5.19  -11   2  -5   40.64
5.33  -11   2  -5   40.22    5.15  -11   2  -5   41.31    5.78   11
-2   5   37.32    5.56   11  -2   5   46.58    5.56   11   1  -5
1.04    2.99   11   1  -5    0.75    2.02  -11  -1   5   -0.25    1.77
10   1  -5    1.51    1.74   10   1  -5    2.90    2.70  -10  -1   5
-0.60    1.40    9   1  -5   -1.09    1.82    9   1  -5   -0.65
1.33   -9  -1   5    0.03    1.45    8   1  -5   -0.08    1.27    8
1  -5    1.12    2.14   -8  -1   5    0.28    0.89   -8  -1   5
0.31    1.28    7   1  -5    2.38    1.72    7   1  -5    5.50    1.66
7   1  -5    0.18    2.02   -7  -1   5    3.24    1.58   -7  -1   5
6.35    1.86   -7  -1   5    3.04    1.12    6   1  -5    5.39    2.65
6   1  -5    3.38    1.40    6   1  -5    6.89    1.99   -6  -1   5
5.12    1.70   -6  -1   5    6.34    1.88   -6  -1   5    7.81    1.39
5   1  -5    7.14    1.90    5   1  -5    4.39    2.52    5   1  -5
5.47    1.52   -5  -1   5    6.70    1.79   -5  -1   5    7.29    1.88
-5  -1   5    6.02    1.17    4   1  -5   17.70    1.98    4   1  -5
19.93    3.33    4   1  -5   14.76    2.07   -4  -1   5   16.95
1.50   -4  -1   5   16.26    2.40   -4  -1   5   21.64    2.50   -4
-1   5   21.74    1.89    3   1  -5    6.75    1.23    3   1  -5
5.22    1.31    3   1  -5    3.90    1.78   -3  -1   5    7.13    1.01
-3  -1   5    4.38    1.22   -3  -1   5    4.01    1.33   -3  -1   5
6.38    0.80    2   1  -5   61.22    2.90    2   1  -5   60.08    4.08
2   1  -5   61.80    2.96   -2  -1   5   60.36    3.43   -2  -1   5
64.48    2.32   -2  -1   5   62.00    3.79    1   1  -5   71.43
3.14    1   1  -5   71.93    2.74    1   1  -5   78.68    4.16   -1
-1   5   74.84    3.71   -1  -1   5   69.06    3.95    0   1  -5
23.71    2.20    0   1  -5   23.44    1.66    0  -1   5   23.03
2.00    0  -1   5   25.65    2.37    0  -1   5   24.53    1.27    0
-1   5   20.12    2.06   -1   1  -5  137.01    5.14   -1   1  -5
142.74    5.88    1  -1   5  146.09    5.89    1  -1   5  142.29
5.57    1  -1   5  146.57    5.20    1  -1   5  144.02    6.08    1
-1   5  144.45    4.90   -2   1  -5   48.48    3.02   -2   1  -5
43.52    2.58    2  -1   5   45.83    3.01    2  -1   5   45.76
2.82    2  -1   5   46.47    2.65    2  -1   5   51.18    2.65    2
-1   5   47.13    3.00   -3   1  -5   10.36    1.71   -3   1  -5
12.82    1.87   -3   1  -5   10.48    1.53    3  -1   5    7.68
1.57    3  -1   5    7.92    1.38    3  -1   5    9.76    1.56    3
-1   5    7.85    1.40    3  -1   5    8.64    1.58   -4   1  -5
5.08    1.38   -4   1  -5    4.57    1.27   -4   1  -5    2.72    1.11
-4   1  -5    3.96    1.16    4  -1   5    5.34    1.35    4  -1   5
1.26    0.97    4  -1   5    2.83    1.16    4  -1   5    5.04    1.24
4  -1   5    1.79    1.12   -5   1  -5   34.70    3.01   -5   1  -5
28.27    2.68   -5   1  -5   32.96    2.91    5  -1   5   27.25
2.71    5  -1   5   32.69    3.04    5  -1   5   34.63    2.97    5
-1   5   28.17    2.70    5  -1   5   27.95    2.87   -6   1  -5
2.43    1.42   -6   1  -5    1.83    1.19   -6   1  -5    1.85    1.30
-6   1  -5    1.87    1.22    6  -1   5    1.21    1.20    6  -1   5
0.22    1.14    6  -1   5    1.10    1.12    6  -1   5    3.12    1.40
-7   1  -5   -0.22    1.09   -7   1  -5   -0.26    1.06    7  -1   5
-0.21    1.08    7  -1   5   -0.27    1.28    7  -1   5    1.20
1.28   -8   1  -5    5.40    2.02   -8   1  -5    3.49    1.75    8
-1   5    6.63    2.03    8  -1   5    7.80    2.25    8  -1   5
8.67    2.38   -9   1  -5    5.05    2.15   -9   1  -5    5.38    2.06
9  -1   5    8.83    2.64    9  -1   5    7.58    2.34    9  -1   5
5.15    2.28  -10   1  -5    6.55    2.21  -10   1  -5    5.64    2.43
10  -1   5    4.75    2.34   10  -1   5    5.31    2.24   10  -1   5
10.48    2.97  -11   1  -5    0.19    1.82  -11   1  -5    1.41
1.90   11  -1   5    2.62    2.22   11  -1   5    1.25    2.17   11
-1   5   -0.46    2.01   10   0  -5    0.36    2.48   10   0  -5
-0.97    1.60  -10   0   5   -0.07    1.63    9   0  -5    4.87
2.01    9   0  -5    6.48    3.18   -9   0   5    6.01    2.34    8
0  -5   38.22    3.82    8   0  -5   30.87    5.13   -8   0   5
37.15    3.02   -8   0   5   41.53    4.49    7   0  -5   37.03
3.50    7   0  -5   44.57    3.47    7   0  -5   41.15    5.46   -7
0   5   45.57    3.00   -7   0   5   37.58    4.04   -7   0   5
47.21    3.81    6   0  -5   52.62    3.82    6   0  -5   65.58
6.04    6   0  -5   56.76    3.79   -6   0   5   53.90    3.15   -6
0   5   53.47    4.42   -6   0   5   49.92    3.91   -6   0   5
60.22    3.99    5   0  -5   55.31    3.41    5   0  -5   54.60
3.71    5   0  -5   49.39    5.22   -5   0   5   54.38    3.83   -5
0   5   58.20    3.01   -5   0   5   54.69    3.60   -5   0   5
58.30    4.07    4   0  -5   67.02    3.49    4   0  -5   60.57
3.68    4   0  -5   66.50    5.26   -4   0   5   74.21    3.78   -4
0   5   68.53    3.10   -4   0   5   60.55    3.96   -4   0   5
68.42    4.04    3   0  -5  267.64    8.32    3   0  -5  256.19
10.62   -3   0   5  255.36    9.66   -3   0   5  238.27    8.97   -3
0   5  270.64    8.59   -3   0   5  254.39    7.54    2   0  -5
247.68    7.51    2   0  -5  241.57    9.56    2   0  -5  238.67
7.62   -2   0   5  238.44    6.51   -2   0   5  238.23    9.04   -2
0   5  248.55    8.38   -2   0   5  241.84    6.48   -2   0   5
246.97    7.66    1   0  -5  419.29   11.30    1   0  -5  399.13
13.67    1   0  -5  410.05   11.47   -1   0   5  397.90   12.36   -1
0   5  406.08   13.61   -1   0   5  426.53   11.88    0   0  -5
394.03   11.01    0   0  -5  383.80   13.01    0   0   5  413.76
11.52    0   0   5  398.70   13.13    0   0   5  396.93   11.88    0
0   5  378.67   12.96   -1   0  -5  366.64   10.35   -1   0  -5
354.79   11.96    1   0   5  352.63   11.98    1   0   5  347.75
12.01    1   0   5  356.85   10.29    1   0   5  367.91   10.80    1
0   5  357.33   10.84   -2   0  -5  146.05    6.05   -2   0  -5
138.54    4.97    2   0   5  140.05    5.24    2   0   5  128.91
5.86    2   0   5  146.20    5.34    2   0   5  142.65    4.97    2
0   5  132.80    5.83   -3   0  -5  160.11    5.93   -3   0  -5
172.43    7.12   -3   0  -5  162.60    6.84    3   0   5  172.54
7.03    3   0   5  157.73    6.78    3   0   5  164.06    5.95    3
0   5  172.90    6.13    3   0   5  165.47    6.40   -4   0  -5
95.36    4.90   -4   0  -5   95.11    4.31    4   0   5   84.25
4.80    4   0   5   91.72    4.75    4   0   5   85.67    4.20    4
0   5   86.69    4.48   -5   0  -5   43.95    2.92   -5   0  -5
39.52    3.38   -5   0  -5   40.10    2.90    5   0   5   43.12
3.49    5   0   5   40.25    3.01    5   0   5   41.07    2.90    5
0   5   38.94    3.11   -6   0  -5   25.98    2.73   -6   0  -5
27.36    3.10    6   0   5   30.00    2.84    6   0   5   25.87
3.21    6   0   5   26.11    3.03    6   0   5   29.14    2.89   -7
0  -5    1.89    1.35   -7   0  -5    2.08    1.56    7   0   5
2.84    1.44    7   0   5    3.36    1.57    7   0   5    3.46    1.71
-8   0  -5    1.07    1.35   -8   0  -5    2.58    1.57    8   0   5
1.95    1.56    8   0   5    5.15    1.79    8   0   5    0.71    1.56
-9   0  -5   -0.58    1.23   -9   0  -5    0.74    1.46    9   0   5
1.88    1.61    9   0   5    2.74    1.57    9   0   5    2.90    1.96
-10   0  -5   -0.31    1.45  -10   0  -5    0.18    1.55   10   0   5
-0.59    1.55   10   0   5    0.53    1.77   10   0   5    2.53
1.74  -11   0  -5    4.25    2.21  -11   0  -5    5.56    2.54   11
0   5    7.34    2.92   11   0   5    6.79    2.75   11   0   5
11.16    3.31   10  -1  -5    0.16    1.65   10  -1  -5   -1.91
2.28  -10   1   5   -0.39    1.50    9  -1  -5    0.20    2.25    9
-1  -5    0.52    1.43   -9   1   5    1.44    1.69    8  -1  -5
4.00    1.70    8  -1  -5    3.82    2.79   -8   1   5    0.16    0.95
-8   1   5    5.74    2.12    7  -1  -5    1.37    2.09    7  -1  -5
2.79    1.30    7  -1  -5   -0.61    1.25   -7   1   5   -0.60    1.07
-7   1   5    1.81    1.45   -7   1   5   -0.23    0.87    6  -1  -5
18.20    2.49    6  -1  -5   20.37    2.43    6  -1  -5   12.73
3.56   -6   1   5   22.91    2.88   -6   1   5   18.05    2.81   -6
1   5   22.58    2.14   -6   1   5   23.08    2.68    5  -1  -5
26.89    2.44    5  -1  -5   31.19    2.93    5  -1  -5   28.31
4.13   -5   1   5   30.85    2.21   -5   1   5   29.34    3.09   -5
1   5   30.55    2.91   -5   1   5   35.79    3.09    4  -1  -5
49.26    4.87    4  -1  -5   55.45    3.43    4  -1  -5   50.19
2.96   -4   1   5   51.48    3.51   -4   1   5   50.95    2.66   -4
1   5   52.44    3.46   -4   1   5   57.58    3.50    3  -1  -5
66.73    3.06    3  -1  -5   65.55    3.44    3  -1  -5   73.95
4.86   -3   1   5   68.41    3.64   -3   1   5   65.94    3.74   -3
1   5   70.15    2.88   -3   1   5   67.28    3.90    2  -1  -5
135.30    6.58    2  -1  -5  144.91    5.20    2  -1  -5  147.39
4.67   -2   1   5  134.74    5.48   -2   1   5  137.56    6.04   -2
1   5  146.23    5.40   -2   1   5  142.84    4.38   -2   1   5
139.89    4.28    1  -1  -5   65.60    2.73    1  -1  -5   65.00
2.24    1  -1  -5   57.57    3.71   -1   1   5   62.50    2.92   -1
1   5   61.63    3.54    0  -1  -5  169.28    7.07    0  -1  -5
188.88    5.04    0   1   5  179.46    6.02    0   1   5  179.42
7.19    0   1   5  158.85    6.83    0   1   5  188.84    6.21   -1
-1  -5  403.26   10.95   -1  -1  -5  390.03   13.26    1   1   5
399.84   13.34    1   1   5  408.17   10.93    1   1   5  388.01
13.24    1   1   5  408.15   12.19   -2  -1  -5  330.15   11.53   -2
-1  -5  322.87   11.44   -2  -1  -5  330.89    9.57    2   1   5
319.17   11.36    2   1   5  340.84    9.58    2   1   5  315.91
11.36    2   1   5  345.74   10.67   -3  -1  -5  132.45    4.81   -3
-1  -5  126.11    5.88   -3  -1  -5  122.48    5.96    3   1   5
120.83    5.84    3   1   5  129.39    5.43    3   1   5  130.77
4.84    3   1   5  127.33    5.83    3   1   5  125.83    4.69   -4
-1  -5  152.07    6.92   -4  -1  -5  158.01    5.78    4   1   5
160.02    6.00    4   1   5  157.77    5.72    4   1   5  164.95
7.25    4   1   5  150.64    6.88    4   1   5  157.41    6.62   -5
-1  -5   40.87    3.54   -5  -1  -5   41.94    2.82    5   1   5
46.08    3.38    5   1   5   38.10    3.46    5   1   5   41.94
2.97    5   1   5   36.85    2.66   -6  -1  -5   24.67    3.10   -6
-1  -5   25.00    2.48    6   1   5   26.63    3.32    6   1   5
21.48    2.56    6   1   5   21.29    2.85   -7  -1  -5   45.35
3.52   -7  -1  -5   39.70    4.03    7   1   5   43.32    3.70    7
1   5   41.42    4.23    7   1   5   40.45    3.95   -8  -1  -5
35.03    4.16   -8  -1  -5   41.86    3.73    8   1   5   33.77
3.98    8   1   5   42.83    4.03    8   1   5   44.05    4.69   -9
-1  -5   27.92    3.38    9   1   5   28.98    4.27    9   1   5
23.11    3.72    9   1   5   30.22    3.76  -10  -1  -5   -0.15
1.41   10   1   5    2.62    1.73   10   1   5    0.59    1.66   10
1   5    0.53    1.74  -11  -1  -5   13.08    3.36   11   1   5
7.72    2.63   11   1   5    6.34    2.70   11   1   5    1.16    2.31
10  -2  -5    5.94    3.47  -10   2   5   11.27    3.26    9  -2  -5
10.92    3.65   -9   2   5    7.15    2.35    8  -2  -5    7.32
2.07    8  -2  -5    8.98    3.36   -8   2   5   13.07    2.87   -8
2   5   12.60    2.79    7  -2  -5    3.44    1.48    7  -2  -5
3.44    1.57    7  -2  -5    5.44    2.76   -7   2   5    4.65    1.30
-7   2   5    3.10    1.76   -7   2   5    0.95    1.26    6  -2  -5
0.33    1.42    6  -2  -5    0.29    1.05    6  -2  -5    0.77    2.34
-6   2   5    1.32    1.36   -6   2   5    0.66    1.29   -6   2   5
-0.65    0.77    5  -2  -5   21.90    2.19    5  -2  -5   19.18
2.40    5  -2  -5   14.20    3.45   -5   2   5   15.95    1.83   -5
2   5   21.37    2.39   -5   2   5   23.39    2.78   -5   2   5
21.90    2.76    4  -2  -5  100.24    6.39    4  -2  -5   78.93
4.26    4  -2  -5   86.77    3.93   -4   2   5   93.68    4.97   -4
2   5   83.00    4.63   -4   2   5   89.74    4.60   -4   2   5
86.03    3.78    3  -2  -5   43.29    2.81    3  -2  -5   44.53
3.97    3  -2  -5   46.65    2.36   -3   2   5   50.48    3.28   -3
2   5   39.19    2.87   -3   2   5   43.78    2.96   -3   2   5
43.42    2.29    2  -2  -5   83.63    4.95    2  -2  -5   84.33
3.77    2  -2  -5   88.83    3.10   -2   2   5   85.51    3.95   -2
2   5   83.87    3.05   -2   2   5   80.86    4.01   -2   2   5
75.77    4.11    1  -2  -5   89.67    4.84    1  -2  -5   86.76
3.49   -1   2   5   87.91    4.03   -1   2   5   82.99    3.62   -1
2   5   83.93    4.26    0  -2  -5  108.96    3.62    0  -2  -5
97.37    5.03    0   2   5  105.95    4.46    0   2   5  106.17
4.97    0   2   5  102.34    5.11   -1  -2  -5  190.71    7.55   -1
-2  -5  182.19    7.37    1   2   5  187.88    7.36    1   2   5
191.03    6.78    1   2   5  174.64    7.32   -2  -2  -5  108.27
5.37   -2  -2  -5  110.15    5.44    2   2   5  118.00    5.48    2
2   5  117.65    5.46    2   2   5  116.62    4.94    2   2   5
115.58    3.86   -3  -2  -5  178.42    7.51   -3  -2  -5  170.58
7.33    3   2   5  160.95    7.20    3   2   5  174.24    6.77    3
2   5  168.22    7.26    3   2   5  168.88    5.75   -4  -2  -5
105.93    4.03   -4  -2  -5   92.47    5.25    4   2   5   90.47
5.26    4   2   5  104.60    4.36    4   2   5   98.72    4.97    4
2   5  103.64    3.93   -5  -2  -5   20.65    2.79   -5  -2  -5
23.79    2.01    5   2   5   17.60    2.64    5   2   5   22.63
2.62    5   2   5   23.87    2.27   -6  -2  -5   21.25    2.19   -6
-2  -5   24.36    3.17    6   2   5   25.49    2.61    6   2   5
23.40    3.20    6   2   5   24.81    3.01   -7  -2  -5   26.74
3.63   -7  -2  -5   23.78    2.57    7   2   5   21.01    3.10    7
2   5   20.54    2.72    7   2   5   19.28    3.21   -8  -2  -5
14.84    3.21    8   2   5   12.40    2.65    8   2   5   12.90
2.50    8   2   5   12.19    2.87   -9  -2  -5   13.14    3.46    9
2   5    6.31    2.60    9   2   5   10.42    2.46    9   2   5
9.77    2.53   10   2   5   14.40    3.22   10   2   5    6.13    2.51
10   2   5   12.02    2.86  -11  -2  -5    0.58    1.79   11   2   5
0.81    1.67   11   2   5    0.51    1.80   11   2   5    0.09    1.87
10  -3  -5   28.71    5.77  -10   3   5   47.43    5.65    9  -3  -5
25.69    5.20   -9   3   5   26.98    4.26   -9   3   5   30.28
4.47    8  -3  -5   31.57    5.24   -8   3   5   20.11    3.56   -8
3   5   22.85    3.64    7  -3  -5   -0.52    2.19   -7   3   5
-0.25    1.23   -7   3   5    1.46    1.06   -7   3   5   -0.27
1.24    6  -3  -5   -0.35    0.90    6  -3  -5   -1.23    1.17    6
-3  -5   -0.92    1.87   -6   3   5   -0.38    1.04   -6   3   5
1.79    0.97   -6   3   5   -1.35    1.04    5  -3  -5    0.83    2.28
5  -3  -5    0.15    1.33    5  -3  -5    0.18    0.89   -5   3   5
-0.28    1.20   -5   3   5    0.81    0.90   -5   3   5   -0.40
1.09    4  -3  -5   -0.12    0.79    4  -3  -5   -0.18    1.06    4
-3  -5   -0.75    1.62   -4   3   5    1.33    0.90   -4   3   5
-0.20    0.67   -4   3   5   -1.28    1.00   -4   3   5    0.88
1.14    3  -3  -5   33.92    2.50    3  -3  -5   31.06    3.50    3
-3  -5   29.71    1.99   -3   3   5   30.81    2.67   -3   3   5
30.50    2.04   -3   3   5   31.90    2.42   -3   3   5   32.92
3.08    2  -3  -5   34.65    3.30    2  -3  -5   30.56    1.73    2
-3  -5   33.02    2.35   -2   3   5   32.23    2.74   -2   3   5
33.07    2.31   -2   3   5   32.47    1.85   -2   3   5   35.48
2.61   -2   3   5   32.82    1.75    1  -3  -5   82.96    4.85    1
-3  -5   92.11    3.83    1  -3  -5   92.11    2.88   -1   3   5
94.85    4.56   -1   3   5   92.72    3.01   -1   3   5   94.90
3.09   -1   3   5   90.96    4.52   -1   3   5   91.46    3.79    0
-3  -5  148.92    6.21    0  -3  -5  147.03    4.88    0  -3  -5
138.45    6.36    0   3   5  133.60    6.28    0   3   5  134.15
5.99    0   3   5  146.24    5.87   -1  -3  -5  196.49    7.82   -1
-3  -5  191.42    5.71   -1  -3  -5  183.73    7.75    1   3   5
190.44    7.76    1   3   5  192.82    7.71    1   3   5  202.22
7.40   -2  -3  -5  307.68   11.40   -2  -3  -5  320.86    8.23   -2
-3  -5  316.35   11.45    2   3   5  335.55    9.04    2   3   5
305.11   11.27    2   3   5  320.03   10.81    2   3   5  298.44
11.24   -3  -3  -5  235.25    9.34   -3  -3  -5  228.32    9.33    3
3   5  241.04    9.31    3   3   5  228.48    8.70    3   3   5
230.94    9.27    3   3   5  240.79    7.46   -4  -3  -5  237.61
9.81    4   3   5  254.00    8.18    4   3   5  237.06    9.18    4
3   5  233.31    9.72   -5  -3  -5  266.88   10.95    5   3   5
276.55    9.31    5   3   5  259.19   10.69    5   3   5  261.25
10.25   -6  -3  -5  184.89    9.14    6   3   5  207.01    7.99    6
3   5  192.75    8.59    6   3   5  201.99    9.30   -7  -3  -5
100.65    6.73    7   3   5  107.22    6.27    7   3   5  113.72
6.85    7   3   5  114.62    5.83   -8  -3  -5  109.33    7.21    8
3   5  111.12    6.14    8   3   5  109.77    7.12    8   3   5
89.96    6.07   -9  -3  -5   35.70    5.04    9   3   5   34.63
4.28    9   3   5   40.24    4.97    9   3   5   39.06    4.11   10
3   5   58.34    5.67   10   3   5   56.24    5.19   10   3   5
66.16    6.52   11   3   5   33.72    4.87   11   3   5   42.32
5.80   11   3   5   36.47    4.78   10  -4  -5   16.87    4.61  -10
4   5   23.75    4.35    9  -4  -5   16.61    4.55   -9   4   5
16.81    3.46   -9   4   5   29.00    4.50    8  -4  -5   13.40
3.98   -8   4   5   18.87    3.46   -8   4   5   11.04    2.93    7
-4  -5   13.19    3.80   -7   4   5   12.82    2.74   -7   4   5
19.78    3.40   -7   4   5   22.51    2.60    6  -4  -5   -0.58
1.21    6  -4  -5    0.21    2.32   -6   4   5    1.34    1.25   -6
4   5    1.22    1.47   -6   4   5   -0.38    0.80    5  -4  -5
2.03    1.41    5  -4  -5   -2.74    1.86   -5   4   5   -1.27    0.70
-5   4   5    2.04    1.49   -5   4   5    0.36    1.17    4  -4  -5
7.30    1.41    4  -4  -5    5.59    1.60    4  -4  -5    9.77    2.81
-4   4   5    5.04    1.28   -4   4   5    6.16    1.97   -4   4   5
8.44    1.83    3  -4  -5    1.09    1.06    3  -4  -5    0.62    0.83
3  -4  -5    1.37    1.58   -3   4   5    1.70    1.09   -3   4   5
1.11    0.80   -3   4   5    0.72    1.32   -3   4   5    0.97    0.77
2  -4  -5    0.41    0.86    2  -4  -5   -0.18    0.66    2  -4  -5
-0.67    0.56    2  -4  -5   -1.54    1.05   -2   4   5   -0.71
0.57   -2   4   5    1.29    1.11   -2   4   5   -0.02    0.75   -2
4   5   -0.01    0.73    1  -4  -5    1.00    0.93    1  -4  -5
1.17    0.79    1  -4  -5    1.22    1.11   -1   4   5    0.52    0.74
-1   4   5    0.71    0.98   -1   4   5    0.97    0.56   -1   4   5
-0.10    0.66   -1   4   5    1.08    0.86    0  -4  -5   38.66
3.13    0  -4  -5   45.34    3.10    0  -4  -5   40.55    2.34    0
4   5   40.07    2.68    0   4   5   39.92    2.90    0   4   5
43.64    3.32    0   4   5   38.70    1.33    0   4   5   40.39
2.99   -1  -4  -5    4.86    0.91   -1  -4  -5    5.04    1.47   -1
-4  -5    6.29    1.57    1   4   5    8.54    1.76    1   4   5
6.63    1.48    1   4   5    6.06    1.17    1   4   5    9.18    1.75
1   4   5    7.78    0.73   -2  -4  -5    9.36    0.97   -2  -4  -5
8.33    1.73   -2  -4  -5    5.92    1.52    2   4   5    7.03    1.12
2   4   5    9.51    1.01    2   4   5    6.77    1.56    2   4   5
7.74    1.60    2   4   5    9.07    1.78   -3  -4  -5   11.14    2.10
-3  -4  -5   11.45    2.07   -3  -4  -5    9.50    0.89    3   4   5
12.49    1.16    3   4   5   10.67    1.31    3   4   5   10.01
1.99    3   4   5   13.14    2.05   -4  -4  -5    5.70    1.78    4
4   5    5.35    1.68    4   4   5    4.56    1.43    4   4   5
4.83    1.19   -5  -4  -5    3.75    1.72    5   4   5    3.88    1.63
5   4   5    4.30    1.27    5   4   5    2.58    1.25   -6  -4  -5
10.93    2.72    6   4   5    7.66    2.15    6   4   5   15.62
2.65    6   4   5   13.31    2.12   -7  -4  -5   14.55    3.11    7
4   5   14.23    2.39    7   4   5   15.47    3.00    7   4   5
13.65    2.57   -8  -4  -5    0.12    1.83    8   4   5    1.18
1.28    8   4   5   -0.68    1.02    8   4   5    0.81    1.49   -9
-4  -5   -3.71    1.78    9   4   5   -2.31    1.35    9   4   5
-1.26    1.19    9   4   5    0.94    1.45   10   4   5   -0.09
1.56   10   4   5   -3.99    1.21   10   4   5   -0.54    1.27   11
4   5    0.53    1.63   11   4   5   -1.23    1.50   11   4   5
-2.58    1.49    9  -5  -5   74.63    7.78   -9   5   5   69.25
6.53   -9   5   5   76.78    7.00    8  -5  -5   72.32    7.28   -8
5   5   81.19    6.01   -8   5   5   84.43    6.69    7  -5  -5
92.25    7.41   -7   5   5   92.46    6.68   -7   5   5   95.38
6.30    6  -5  -5   76.96    6.82   -6   5   5   69.11    5.77   -6
5   5   64.94    4.02   -6   5   5   74.51    5.23    5  -5  -5
18.81    2.37    5  -5  -5   21.88    3.89   -5   5   5   23.95
3.04   -5   5   5   25.42    3.65   -5   5   5   20.89    2.27    4
-5  -5   17.56    2.22    4  -5  -5   12.82    3.18   -4   5   5
15.54    2.89   -4   5   5   14.90    1.90   -4   5   5   13.28
2.34    3  -5  -5    5.94    2.07    3  -5  -5    6.75    1.57   -3
5   5    3.26    1.62   -3   5   5    6.79    1.34   -3   5   5
3.33    1.12   -3   5   5   -0.10    0.65    2  -5  -5    1.41    1.51
2  -5  -5    0.84    1.03    2  -5  -5   -0.82    0.72   -2   5   5
0.14    0.75   -2   5   5   -0.63    0.80   -2   5   5    1.37    1.05
-2   5   5    0.49    1.11   -2   5   5    0.90    0.79    1  -5  -5
0.63    0.90    1  -5  -5    1.03    1.24    1  -5  -5    1.58    1.03
-1   5   5    0.67    0.64   -1   5   5    1.05    1.06   -1   5   5
1.30    0.84   -1   5   5    0.21    0.85   -1   5   5    0.55    0.84
0  -5  -5   30.18    2.26    0  -5  -5   31.42    3.08    0  -5  -5
26.11    2.64    0   5   5   28.97    2.62    0   5   5   29.77
3.04    0   5   5   20.52    2.59    0   5   5   31.50    2.79    0
5   5   29.50    1.49   -1  -5  -5   41.03    2.38   -1  -5  -5
37.22    3.23   -1  -5  -5   34.38    3.12    1   5   5   36.89
3.21    1   5   5   37.75    3.02    1   5   5   38.09    3.33    1
5   5   32.65    2.53   -2  -5  -5   40.54    3.53   -2  -5  -5
44.15    3.36   -2  -5  -5   43.60    2.35    2   5   5   40.01
2.17    2   5   5   44.30    2.75    2   5   5   43.11    3.33    2
5   5   40.72    3.26   -3  -5  -5  170.91    5.55   -3  -5  -5
163.49    7.59   -3  -5  -5  148.01    7.61    3   5   5  175.66
7.79    3   5   5  168.65    5.92    3   5   5  169.78    7.46    3
5   5  167.04    6.27   -4  -5  -5  182.61    8.57   -4  -5  -5
178.65    5.79    4   5   5  177.12    8.28    4   5   5  186.96
6.81    4   5   5  183.03    6.42    4   5   5  180.25    8.00   -5
-5  -5  206.18    9.93    5   5   5  212.19    9.62    5   5   5
217.45    6.91    5   5   5  214.33    7.99   -6  -5  -5  220.54
11.04    6   5   5  243.56   10.19    6   5   5  245.16    9.18    6
5   5  251.96   10.85   -7  -5  -5  159.84    9.28    7   5   5
179.80    7.79    7   5   5  166.85    8.93    7   5   5  172.24
8.52   -8  -5  -5   55.19    5.93    8   5   5   64.62    4.65    8
5   5   59.85    5.67    8   5   5   62.15    5.34   -9  -5  -5
92.35    8.26    9   5   5  108.41    7.00    9   5   5  114.09
6.54    9   5   5  107.50    7.68   10   5   5   66.20    5.63   10
5   5   72.80    6.95   10   5   5   71.89    6.31   11   5   5
60.14    6.94   11   5   5   61.82    6.19   11   5   5   68.54
6.08   -9   6   5    1.89    2.57   -9   6   5    2.38    2.18   -8
6   5   -0.10    1.59   -8   6   5    1.57    2.07    7  -6  -5
0.39    2.52   -7   6   5   -0.82    1.41   -7   6   5   -0.15    1.74
6  -6  -5    4.09    2.71   -6   6   5    7.77    2.29   -6   6   5
5.16    2.28    5  -6  -5    0.26    2.04    5  -6  -5    0.64    1.25
-5   6   5    1.72    1.50   -5   6   5    0.82    1.01   -5   6   5
3.61    1.96    4  -6  -5    0.61    1.92    4  -6  -5    1.20    1.21
-4   6   5    0.27    1.15   -4   6   5   -1.86    1.26   -4   6   5
0.39    1.21   -4   6   5    1.40    1.00    3  -6  -5    1.31    1.90
3  -6  -5    4.00    1.43   -3   6   5    0.79    1.15   -3   6   5
2.11    1.55   -3   6   5    2.10    0.98   -3   6   5   -1.50    1.02
2  -6  -5    7.28    1.63    2  -6  -5    8.99    1.75    2  -6  -5
9.37    2.31   -2   6   5    5.72    1.86   -2   6   5    6.21    1.77
-2   6   5    8.49    1.40   -2   6   5    5.99    1.50   -2   6   5
10.53    1.73    1  -6  -5   -0.26    1.11    1  -6  -5    1.01
1.10    1  -6  -5    0.73    0.99   -1   6   5    0.85    1.21   -1
6   5    1.30    1.14   -1   6   5    0.73    0.75    0  -6  -5
2.90    1.07    0  -6  -5    1.79    1.16    0  -6  -5    3.12    1.48
0   6   5    3.32    1.52    0   6   5    2.66    1.27    0   6   5
4.23    1.53    0   6   5    3.32    0.83   -1  -6  -5    1.10    0.84
-1  -6  -5    1.10    1.19   -1  -6  -5    1.46    1.14    1   6   5
2.18    1.32    1   6   5    1.72    0.46    1   6   5    1.03    1.10
1   6   5    0.90    0.99   -2  -6  -5    8.12    1.89   -2  -6  -5
9.72    2.18   -2  -6  -5    7.78    1.30    2   6   5    8.39    1.65
2   6   5    9.00    1.98    2   6   5   10.00    2.08   -3  -6  -5
12.75    2.32   -3  -6  -5   11.84    1.47   -3  -6  -5   12.60
2.52   -3  -6  -5   14.41    1.58    3   6   5   11.47    2.28    3
6   5   12.45    2.31    3   6   5   15.99    1.95    3   6   5
12.55    1.56   -4  -6  -5    5.49    1.14   -4  -6  -5    7.23
2.21    4   6   5    6.06    1.87    4   6   5    6.23    1.31    4
6   5    6.46    1.40    4   6   5    5.37    1.68   -5  -6  -5
2.78    1.88    5   6   5    4.52    1.14    5   6   5    6.14    1.94
5   6   5    2.11    1.36    5   6   5    6.02    1.53   -6  -6  -5
3.61    2.11    6   6   5    1.75    1.24    6   6   5    4.06    1.80
6   6   5    0.99    1.10    6   6   5    5.04    1.03   -7  -6  -5
4.55    2.44    7   6   5    5.14    1.89    7   6   5   10.34    0.91
7   6   5    5.54    2.21    7   6   5    9.77    2.13   -8  -6  -5
7.91    3.11    8   6   5   12.34    2.75    8   6   5   10.40    2.36
8   6   5    8.58    2.61    9   6   5   20.14    3.29    9   6   5
17.47    3.69    9   6   5   24.31    3.97   10   6   5   20.14
3.78   10   6   5   18.05    3.44   10   6   5   21.98    4.38   11
6   5   13.59    3.30   11   6   5   24.25    4.38   11   6   5
13.19    3.87   -8   7   5   88.47    6.69   -8   7   5   69.69
7.15   -7   7   5  115.28    7.36   -7   7   5  105.71    7.88   -6
7   5   90.71    6.96   -6   7   5   92.21    6.16   -5   7   5
139.05    7.32   -5   7   5  125.70    8.26   -5   7   5  152.16
6.48    4  -7  -5   81.20    4.36   -4   7   5   71.38    4.74   -4
7   5   71.72    5.73   -4   7   5   72.88    4.13    3  -7  -5
34.06    2.88   -3   7   5   24.58    3.60   -3   7   5   34.75
2.77   -3   7   5   27.41    3.48    2  -7  -5   18.93    2.29   -2
7   5   21.15    3.00   -2   7   5   19.70    2.06   -2   7   5
15.79    3.03    1  -7  -5    1.10    1.12    1  -7  -5   -0.86
0.95    1  -7  -5    3.75    1.60   -1   7   5    4.94    1.76   -1
7   5    1.96    0.95   -1   7   5   -0.16    1.12    0  -7  -5
10.49    2.18    0  -7  -5   10.64    1.77    0  -7  -5   12.42
2.33    0   7   5   12.99    2.27    0   7   5    9.82    1.29    0
7   5    9.49    2.18    0   7   5   13.77    2.41   -1  -7  -5
7.68    1.53   -1  -7  -5    8.97    2.02   -1  -7  -5    3.45    1.76
1   7   5    6.01    1.75    1   7   5    7.07    0.94    1   7   5
8.74    1.89    1   7   5    8.06    1.97   -2  -7  -5    1.53    0.95
-2  -7  -5    3.26    1.76   -2  -7  -5    3.44    1.48    2   7   5
1.34    1.24    2   7   5    2.65    1.22    2   7   5    4.07    1.59
-3  -7  -5    5.84    1.77   -3  -7  -5   10.54    2.52   -3  -7  -5
6.67    1.39    3   7   5   14.32    2.45    3   7   5   13.84    2.49
3   7   5    6.58    1.54   -4  -7  -5   28.24    3.94   -4  -7  -5
27.83    2.34   -4  -7  -5   30.44    3.51    4   7   5   34.89
2.75    4   7   5   30.59    2.77    4   7   5   35.60    3.69    4
7   5   31.83    3.63   -5  -7  -5   35.48    4.50   -5  -7  -5
46.43    2.86    5   7   5   47.53    3.30    5   7   5   40.17
4.09    5   7   5   40.72    3.00    5   7   5   44.22    4.39   -6
-7  -5   43.75    5.16    6   7   5   58.76    4.02    6   7   5
52.85    3.25    6   7   5   44.38    4.49    6   7   5   59.47
5.22   -7  -7  -5   96.07    7.55    7   7   5  107.12    6.93    7
7   5  111.46    4.70    7   7   5   98.66    6.45    7   7   5
103.80    5.81    8   7   5   81.24    6.03    8   7   5   65.49
6.13    8   7   5   82.52    3.33    8   7   5   81.81    5.34    9
7   5   38.71    5.19    9   7   5   34.65    4.04    9   7   5
34.38    4.61   10   7   5   67.71    6.37   10   7   5   56.79
5.44   10   7   5   78.47    7.35   11   7   5   27.33    4.73   11
7   5   26.57    5.20   11   7   5   27.45    4.25   -7   8   5
16.16    4.00   -7   8   5   17.07    3.51   -6   8   5   21.62
4.29   -6   8   5   16.00    3.20   -5   8   5    2.34    2.02   -4
8   5    1.76    1.80   -4   8   5    5.05    1.52    3  -8  -5
27.59    2.72   -3   8   5   24.51    2.58   -3   8   5   27.97
4.10    2  -8  -5   27.42    2.73   -2   8   5   19.64    3.43   -2
8   5   23.68    2.36   -2   8   5   22.43    3.23    1  -8  -5
9.28    1.80    1  -8  -5    8.58    2.24   -1   8   5   10.22    2.52
-1   8   5    7.06    2.12   -1   8   5    8.35    1.52    0  -8  -5
3.79    1.30    0  -8  -5    9.28    2.27    0  -8  -5    4.06    1.52
0   8   5    6.27    1.24    0   8   5    2.43    1.60    0   8   5
8.56    2.19    0   8   5    6.50    1.98   -1  -8  -5   -0.40    0.88
-1  -8  -5   -1.00    0.77   -1  -8  -5    0.95    1.50    1   8   5
0.25    1.10    1   8   5   -0.90    0.94    1   8   5    1.72    1.38
1   8   5    0.02    0.44   -2  -8  -5    2.94    1.47   -2  -8  -5
1.42    1.01   -2  -8  -5    1.58    1.68    2   8   5    0.74    1.15
2   8   5    1.75    1.20    2   8   5    2.43    1.44   -3  -8  -5
1.29    1.33   -3  -8  -5    0.86    1.70   -3  -8  -5    2.85    1.10
3   8   5    1.50    1.29    3   8   5    3.37    1.60    3   8   5
1.05    1.10   -4  -8  -5    0.11    0.85   -4  -8  -5   -0.87    1.02
-4  -8  -5   -0.49    1.53    4   8   5    1.37    1.40    4   8   5
2.72    1.49    4   8   5   -0.07    0.99   -5  -8  -5    1.42    1.07
-5  -8  -5    2.11    2.00    5   8   5    2.27    1.48    5   8   5
2.96    1.26    5   8   5    3.06    1.58   -6  -8  -5   38.87    2.96
-6  -8  -5   32.12    4.85    6   8   5   28.15    3.92    6   8   5
30.16    2.91    6   8   5   33.22    4.13    7   8   5   69.99
4.85    7   8   5   71.12    5.57    7   8   5   68.66    6.02    8
8   5   51.38    5.27    8   8   5   38.79    4.94    8   8   5
48.50    4.43    9   8   5   30.92    3.93    9   8   5   30.27
4.79    9   8   5   25.50    4.16   10   8   5   25.98    4.57   10
8   5   30.95    5.18   10   8   5   22.78    3.87   -7   9   5
40.80    6.13   -6   9   5   57.72    6.60   -5   9   5   40.82
5.40   -4   9   5   73.72    6.63    3  -9  -5   58.97    3.75   -3
9   5   45.83    3.43   -3   9   5   44.09    5.21    2  -9  -5
42.90    3.35   -2   9   5   37.14    4.29   -2   9   5   46.23
3.27   -2   9   5   35.74    4.67    1  -9  -5   74.19    4.27   -1
9   5   63.46    5.70   -1   9   5   60.92    5.02   -1   9   5
75.14    3.96    0  -9  -5   16.48    2.30    0   9   5   16.66
1.95    0   9   5   15.97    2.99    0   9   5   18.14    3.23   -1
-9  -5   12.34    2.72   -1  -9  -5    6.00    1.57    1   9   5
7.30    2.18    1   9   5    8.77    1.36    1   9   5    8.12    2.24
-2  -9  -5   18.53    3.49   -2  -9  -5   17.28    2.27    2   9   5
16.56    2.86    2   9   5   21.21    3.43    2   9   5   18.54
2.85   -3  -9  -5   -0.60    1.00   -3  -9  -5    0.53    1.00   -3
-9  -5    0.21    1.92    3   9   5    2.43    1.57    3   9   5
1.72    1.39    3   9   5    0.83    1.21   -4  -9  -5   -0.70    0.78
-4  -9  -5    0.83    1.39   -4  -9  -5    1.17    1.93    4   9   5
0.82    1.20    4   9   5    1.54    1.45    4   9   5    0.14    1.21
-5  -9  -5    2.10    2.27   -5  -9  -5    1.28    1.53   -5  -9  -5
0.11    0.99    5   9   5    0.00    1.23    5   9   5    0.87    1.41
-6  -9  -5    9.61    1.92   -6  -9  -5    9.16    1.89    6   9   5
5.13    2.13    6   9   5    7.49    2.25   -7  -9  -5    5.96    1.71
7   9   5    1.88    1.68    7   9   5    4.51    2.22    8   9   5
28.43    4.62    9   9   5   12.81    3.30    9   9   5   20.34
4.32   10   9   5   10.94    3.44   10   9   5    6.30    2.78   -6
10   5   35.26    5.54   -5  10   5   36.47    5.50   -4  10   5
75.11    7.15   -3  10   5   75.20    6.86    2 -10  -5   70.20
4.23   -2  10   5   56.77    6.01    1 -10  -5   47.20    3.63   -1
10   5   45.50    4.88   -1  10   5   44.67    3.26   -1  10   5
35.05    4.70    0 -10  -5   43.14    3.53    0  10   5   47.80
3.14    0  10   5   42.65    4.91    0  10   5   41.56    4.58   -1
-10  -5   36.09    3.20    1  10   5   35.46    4.53    1  10   5
37.16    4.28    1  10   5   45.46    2.82   -2 -10  -5   71.65
4.45   -2 -10  -5   81.36    6.28    2  10   5   88.80    5.87    2
10   5   68.84    6.00   -3 -10  -5   17.30    2.36   -3 -10  -5
16.52    3.72    3  10   5   15.24    3.14   -4 -10  -5    2.59
1.33   -4 -10  -5    5.70    2.74    4  10   5    3.03    1.81    4
10   5    0.62    1.47   -5 -10  -5   -1.03    1.29   -5 -10  -5
0.85    1.17    5  10   5    1.32    1.69    5  10   5    0.29    1.30
-6 -10  -5    2.21    1.73    6  10   5   -0.10    1.74    6  10   5
0.95    1.55    7  10   5    0.95    1.58    7  10   5    1.58    1.95
8  10   5   17.03    3.84    8  10   5   16.16    3.45    9  10   5
15.76    3.86    9  10   5   15.04    3.79   -4  11   5   22.55
4.73   -3  11   5   36.30    5.44   -2  11   5   26.32    4.56   -1
11   5   19.94    3.84    0  11   5    6.48    2.60    0  11   5
15.95    2.20    1  11   5   14.62    3.28    2  11   5   10.80
3.02   -3 -11  -5    9.52    3.33    3  11   5    7.72    2.66    4
11   5   -0.46    1.30    5  11   5    2.35    1.85    6  11   5
4.77    2.15    7  11   5   -0.90    1.58    7  11   5    0.98    1.99
8  11   5    0.97    2.13    8  11   5   -0.58    1.94   -3  12   5
38.44    5.80   -2  12   5   68.87    7.08   -1  12   5  106.18
7.95    0  12   5   94.42    7.31    1  12   5   73.37    6.85    2
12   5   43.56    5.48    3  12   5   66.75    6.52    4  12   5
32.24    4.87    5  12   5   16.47    3.56    6  12   5   32.39
5.01    7  12   5    7.05    2.70   -1  13   5   -0.49    2.04    0
13   5    2.27    2.24    1  13   5    1.61    1.98    2  13   5
0.32    1.88    3  13   5   -0.10    1.71    4  13   5    0.83    1.71
5  13   5   -0.05    1.81    4  12  -6    0.45    2.02   -4 -12   6
1.29    2.00    3  12  -6    1.51    2.15    3  12  -6    1.79    2.75
-3 -12   6   -0.02    1.82    2  12  -6    0.55    2.05    2  12  -6
4.64    3.31   -2 -12   6    0.56    1.74    1  12  -6    0.13    2.03
1  12  -6    5.76    3.41   -1 -12   6   -1.92    1.45    0  12  -6
-0.30    1.74    0  12  -6   -2.05    2.29    0 -12   6    1.79
1.87   -1  12  -6   -2.81    2.29   -1  12  -6   -0.74    1.69    1
-12   6    1.05    1.94   -2  12  -6    3.18    2.95    2 -12   6
-0.24    1.75    6  11  -6   62.24    6.68   -6 -11   6   75.64
6.67    5  11  -6   92.60    7.83   -5 -11   6  104.99    7.34    4
11  -6   84.66    7.87    4  11  -6   78.11    7.04   -4 -11   6
82.63    6.34    3  11  -6   74.36    7.53   -3 -11   6   79.78
6.65    2  11  -6   42.20    6.04    2  11  -6   46.40    5.35   -2
-11   6   43.44    5.02    1  11  -6   23.89    4.16    1  11  -6
26.75    5.17   -1 -11   6   36.86    4.76    0  11  -6    9.91
2.94    0  11  -6   12.44    3.76    0 -11   6   12.92    3.12   -1
11  -6    7.92    2.79   -1  11  -6    2.32    2.83    1 -11   6
5.44    2.31   -2  11  -6    3.90    3.00   -2  11  -6    5.35    2.65
2 -11   6    5.76    2.37   -3  11  -6    3.94    2.88   -3  11  -6
0.70    1.81   -3  11  -6    2.12    2.26    3 -11   6   -0.68    1.51
-4  11  -6    3.64    2.62   -4  11  -6    1.44    2.11   -4  11  -6
3.78    3.38    4 -11   6    3.42    2.42    7  10  -6    2.41    2.30
-7 -10   6    3.02    2.04    6  10  -6   -0.56    1.71   -6 -10   6
-2.01    1.27    5  10  -6    1.83    2.03   -5 -10   6    4.76
2.03    4  10  -6    2.55    2.16    4  10  -6    1.95    2.28   -4
-10   6    2.17    1.78    3  10  -6    3.85    2.69    3  10  -6
-0.33    1.64   -3 -10   6   -0.50    1.41    2  10  -6    0.65
1.68    2  10  -6    1.61    2.03    2  10  -6   -1.30    1.89   -2
-10   6    0.91    1.72   -2 -10   6   -0.99    1.18    1  10  -6
2.37    2.39    1  10  -6    6.74    2.34   -1 -10   6    5.11    2.03
0  10  -6    2.16    1.88    0  10  -6    3.33    2.53    0 -10   6
5.57    2.19   -1  10  -6    4.79    2.10   -1  10  -6   -1.08    2.08
1 -10   6    2.21    1.78   -2  10  -6    0.38    2.26   -2  10  -6
0.08    1.78    2 -10   6    2.62    1.79   -3  10  -6    0.40    1.70
-3  10  -6    0.74    2.51    3 -10   6    0.16    1.46   -4  10  -6
-1.01    2.40   -4  10  -6    0.50    1.66   -4  10  -6   -0.72
1.59    4 -10   6   -0.04    1.52   -5  10  -6    0.39    1.88   -5
10  -6    1.90    3.05   -5  10  -6    1.24    2.23    5 -10   6
1.56    1.85    5 -10   6    0.02    2.11    8   9  -6   24.37    4.37
-8  -9   6   35.00    5.02    7   9  -6   54.68    5.83   -7  -9   6
38.84    5.05    6   9  -6   91.81    6.72   -6  -9   6   82.61
6.25    5   9  -6   97.37    6.80   -5  -9   6   97.08    6.64    4
9  -6   53.22    5.38    4   9  -6   64.44    6.09   -4  -9   6
65.84    5.59    3   9  -6   61.42    5.64    3   9  -6   79.53
5.51    3   9  -6   88.04    6.87   -3  -9   6   72.65    5.92   -3
-9   6   61.42    5.45    2   9  -6   93.57    7.32    2   9  -6
109.91    7.04    2   9  -6  114.97    6.29   -2  -9   6  106.70
6.84   -2  -9   6  116.63    7.22    1   9  -6  105.52    6.76    1
9  -6  105.01    7.67   -1  -9   6  102.60    6.56   -1  -9   6
116.58    6.99    0   9  -6   58.80    5.39    0   9  -6   62.53
6.34    0  -9   6   57.24    5.22   -1   9  -6   55.47    5.21   -1
9  -6   61.30    6.51    1  -9   6   50.22    4.99   -2   9  -6
22.02    3.83   -2   9  -6   23.30    4.64    2  -9   6   24.93
3.93   -3   9  -6   20.13    3.70   -3   9  -6   17.70    4.17    3
-9   6   16.87    3.35   -4   9  -6   15.66    4.19   -4   9  -6
12.96    3.08   -4   9  -6   12.74    3.29    4  -9   6   11.80
3.05    4  -9   6   18.92    3.59   -5   9  -6    4.39    2.44   -5
9  -6    0.27    1.57   -5   9  -6    1.76    2.82    5  -9   6
3.10    2.15    5  -9   6    3.74    2.32   -6   9  -6   -0.53    2.65
-6   9  -6    0.68    1.85   -6   9  -6    0.65    1.80    6  -9   6
0.47    1.92    6  -9   6   -0.98    1.44    8   8  -6   14.93    3.49
-8  -8   6    8.87    2.72    7   8  -6    4.39    2.27   -7  -8   6
4.24    2.16    6   8  -6    9.31    2.58   -6  -8   6    4.93    2.23
5   8  -6   14.77    3.17   -5  -8   6   13.12    2.90    4   8  -6
17.05    3.08    4   8  -6   18.03    3.68    4   8  -6   22.18
3.58   -4  -8   6   18.83    3.23   -4  -8   6   15.09    3.39    3
8  -6   37.67    3.76    3   8  -6   53.96    5.42    3   8  -6
32.43    4.03   -3  -8   6   33.84    4.06   -3  -8   6   35.41
4.45    2   8  -6   63.29    4.44    2   8  -6   68.45    5.11    2
8  -6   58.03    5.72   -2  -8   6   54.76    5.03   -2  -8   6
55.99    5.01    1   8  -6   47.09    4.52    1   8  -6   51.99
5.56   -1  -8   6   45.15    4.56   -1  -8   6   50.67    4.63    0
8  -6   59.35    5.06    0   8  -6   52.27    5.69    0  -8   6
54.16    4.73    0  -8   6   44.95    4.21   -1   8  -6   82.71
6.61   -1   8  -6   69.96    5.31    1  -8   6   77.42    5.45   -2
8  -6   16.22    3.12   -2   8  -6   22.93    4.20    2  -8   6
25.14    3.61   -3   8  -6    3.72    2.50   -3   8  -6    5.25
2.05    3  -8   6    4.86    1.93   -4   8  -6    3.81    2.03   -4
8  -6    1.77    1.56   -4   8  -6    3.99    2.61    4  -8   6
1.62    1.67    4  -8   6    4.60    2.01   -5   8  -6   10.38    3.47
-5   8  -6   14.74    3.20   -5   8  -6   11.35    3.01    5  -8   6
13.00    3.20    5  -8   6   12.19    2.81   -6   8  -6    7.73
2.53   -6   8  -6   11.36    3.11   -6   8  -6    9.47    3.38    6
-8   6   11.75    3.11    6  -8   6    2.69    1.97   -7   8  -6
1.19    2.03   -7   8  -6    1.41    2.81   -7   8  -6    0.10    1.87
-7   8  -6    0.53    1.86    7  -8   6    0.36    1.69    7  -8   6
1.94    2.00    9   7  -6    1.88    2.09    9   7  -6    1.72    2.68
-9  -7   6    3.90    2.21    8   7  -6    7.60    3.33    8   7  -6
11.73    2.98   -8  -7   6    9.89    2.86    7   7  -6    7.38
2.33    7   7  -6    5.96    3.11   -7  -7   6    4.29    2.02    6
7  -6   23.03    4.14    6   7  -6   25.61    3.71   -6  -7   6
24.27    3.66    5   7  -6   36.44    3.92    5   7  -6   43.09
4.35   -5  -7   6   31.75    4.65   -5  -7   6   43.09    4.54    4
7  -6   53.54    4.75    4   7  -6   48.46    4.77    4   7  -6
48.40    4.17   -4  -7   6   41.78    4.32   -4  -7   6   46.29
5.09    3   7  -6   62.38    5.31    3   7  -6   52.10    4.55    3
7  -6   54.83    4.18   -3  -7   6   48.12    4.46   -3  -7   6
50.38    4.94    2   7  -6   94.42    5.02    2   7  -6   65.70
5.03    2   7  -6   84.76    6.01   -2  -7   6   87.20    5.55   -2
-7   6   81.67    5.70    1   7  -6   41.12    3.96    1   7  -6
44.37    4.69   -1  -7   6   35.93    3.83   -1  -7   6   35.90
3.86    0   7  -6   83.85    5.40    0   7  -6   80.72    6.05    0
-7   6   76.87    5.14    0  -7   6   77.85    5.24   -1   7  -6
89.27    6.46   -1   7  -6   80.07    5.38    1  -7   6   77.18
5.28    1  -7   6   76.98    5.03   -2   7  -6   59.73    5.90   -2
7  -6   74.85    5.25    2  -7   6   70.47    5.04   -3   7  -6
56.07    5.88   -3   7  -6   55.40    4.96    3  -7   6   54.47
4.85    3  -7   6   53.56    4.85   -4   7  -6   26.86    3.87   -4
7  -6   24.81    4.40    4  -7   6   29.27    3.91    4  -7   6
28.46    3.97   -5   7  -6   15.08    2.94   -5   7  -6   11.77
3.48   -5   7  -6   18.37    3.38   -5   7  -6   22.17    3.72    5
-7   6   14.13    3.06    5  -7   6   15.37    3.12   -6   7  -6
1.57    1.73   -6   7  -6    2.16    1.77   -6   7  -6    4.41    2.01
-6   7  -6    1.34    1.95    6  -7   6    2.97    1.79    6  -7   6
4.66    2.13   -7   7  -6    1.11    1.61   -7   7  -6    6.04    2.49
-7   7  -6    6.97    2.57    7  -7   6   -0.70    1.76    7  -7   6
5.82    2.32   -8   7  -6   -0.64    1.86   -8   7  -6   -0.11    1.53
-8   7  -6   -0.77    1.62    8  -7   6   -0.99    1.62    8  -7   6
1.25    1.74    9   6  -6   -0.71    2.48    9   6  -6    3.63    2.06
-9  -6   6   -1.54    1.42    8   6  -6   -0.07    2.45    8   6  -6
0.97    1.72   -8  -6   6    0.80    1.71    7   6  -6    2.74    2.58
7   6  -6    7.66    2.32   -7  -6   6    3.63    1.87    6   6  -6
13.88    2.78    6   6  -6   15.31    2.93    6   6  -6   15.20
3.62   -6  -6   6   12.18    3.18   -6  -6   6   15.33    2.98    5
6  -6    9.40    2.87    5   6  -6    9.89    2.40    5   6  -6
9.46    2.28   -5  -6   6   10.48    2.41   -5  -6   6   14.39    3.18
4   6  -6   49.40    4.38    4   6  -6   51.33    4.38    4   6  -6
56.36    5.07    4   6  -6   53.57    4.20   -4  -6   6   52.04
4.53   -4  -6   6   50.40    5.07    3   6  -6   67.49    4.46    3
6  -6   68.10    4.69    3   6  -6   74.45    5.21   -3  -6   6
71.63    4.93   -3  -6   6   69.94    5.30    2   6  -6  178.49
8.67    2   6  -6  172.13    7.93    2   6  -6  188.50    7.28   -2
-6   6  161.70    8.44   -2  -6   6  161.05    7.85    1   6  -6
92.02    5.44    1   6  -6  105.97    6.43   -1  -6   6  103.39
5.88   -1  -6   6   94.85    5.89    0   6  -6   87.52    5.33    0
6  -6   87.88    6.07    0  -6   6  101.02    5.76    0  -6   6
95.14    5.60   -1   6  -6  151.21    7.44   -1   6  -6  158.31
8.43    1  -6   6  157.85    7.44    1  -6   6  148.44    7.44   -2
6  -6  260.09   11.78   -2   6  -6  266.45   10.72    2  -6   6
237.30   10.39    2  -6   6  268.54   10.41   -3   6  -6   75.42
5.87   -3   6  -6   63.94    4.90    3  -6   6   72.45    5.10    3
-6   6   81.73    5.36   -4   6  -6  111.24    6.62   -4   6  -6
129.29    6.55   -4   6  -6  107.53    7.41    4  -6   6  122.46
6.81    4  -6   6  117.78    6.77   -5   6  -6   79.88    5.75   -5
6  -6   83.27    5.71   -5   6  -6   72.98    5.31   -5   6  -6
80.81    6.39    5  -6   6   72.48    5.40    5  -6   6   83.06
5.75   -6   6  -6   28.51    3.86   -6   6  -6   22.64    3.58   -6
6  -6   36.89    4.93   -6   6  -6   24.63    3.80    6  -6   6
28.27    3.86    6  -6   6   28.48    4.03   -7   6  -6   14.75
3.19   -7   6  -6   14.65    3.35   -7   6  -6   25.16    3.98    7
-6   6   15.07    3.26    7  -6   6   19.96    3.63   -8   6  -6
15.03    3.28   -8   6  -6   11.51    3.23   -8   6  -6   12.33
3.35    8  -6   6   18.66    3.81    8  -6   6   22.97    4.11   -9
6  -6   10.49    3.12   -9   6  -6   17.92    3.85   -9   6  -6
11.94    3.53    9  -6   6   15.58    3.67    9  -6   6   13.07
3.34   10   5  -6   11.76    3.09   10   5  -6    9.71    3.88  -10
-5   6    9.02    2.97    9   5  -6    8.32    3.56    9   5  -6
3.69    2.07   -9  -5   6    6.77    2.42    8   5  -6    1.60    1.73
8   5  -6   -0.60    2.16   -8  -5   6   -0.12    1.43    7   5  -6
-0.51    1.99    7   5  -6    0.07    1.29   -7  -5   6    1.82
1.99   -7  -5   6    0.56    1.33   -7  -5   6    0.44    0.94    6
5  -6   -1.97    1.95    6   5  -6   -0.19    1.10    6   5  -6
-0.78    1.54   -6  -5   6   -0.08    1.11   -6  -5   6    0.30
1.40    5   5  -6    4.08    1.74    5   5  -6    3.82    2.47    5
5  -6    2.95    1.78    5   5  -6    1.29    1.36   -5  -5   6
0.14    1.36   -5  -5   6    0.94    1.26    4   5  -6   13.35    3.18
4   5  -6   14.85    2.49    4   5  -6   16.40    2.70    4   5  -6
18.52    2.66   -4  -5   6   13.70    2.77   -4  -5   6   11.35
2.33    3   5  -6   10.14    2.70    3   5  -6   13.17    2.34    3
5  -6   10.95    2.38    3   5  -6   14.63    2.33   -3  -5   6
9.39    2.13   -3  -5   6   11.13    2.55    2   5  -6    6.33    1.98
2   5  -6    3.84    1.45    2   5  -6   10.52    1.94    2   5  -6
6.60    2.23   -2  -5   6    7.09    1.89   -2  -5   6    7.92    2.05
1   5  -6   49.07    4.21    1   5  -6   49.49    3.89    1   5  -6
46.64    3.77   -1  -5   6   45.11    4.00   -1  -5   6   51.04
4.03    0   5  -6   66.73    4.73    0   5  -6   55.70    4.00    0
-5   6   66.63    4.43    0  -5   6   60.35    4.29   -1   5  -6
12.42    2.38   -1   5  -6   17.01    2.89    1  -5   6   20.49
2.80    1  -5   6   14.40    2.34   -2   5  -6    3.14    1.68   -2
5  -6    0.96    1.27    2  -5   6   -0.16    1.04    2  -5   6
1.29    1.17    2  -5   6    0.24    1.03   -3   5  -6    8.89    1.94
-3   5  -6    8.12    2.04   -3   5  -6    7.41    2.37    3  -5   6
8.19    1.83    3  -5   6    7.17    1.94    3  -5   6    7.87    2.21
-4   5  -6   24.39    3.82   -4   5  -6   26.90    3.36   -4   5  -6
32.16    3.23    4  -5   6   31.31    3.55    4  -5   6   19.93
3.08   -5   5  -6    7.15    2.22   -5   5  -6    9.56    2.33   -5
5  -6   13.81    2.57   -5   5  -6    9.34    2.79    5  -5   6
9.02    2.30    5  -5   6   15.45    2.88   -6   5  -6    0.43    1.46
-6   5  -6    1.17    1.52   -6   5  -6    1.78    1.53   -6   5  -6
4.47    2.33    6  -5   6    0.94    1.41    6  -5   6    0.03    1.37
6  -5   6    1.38    1.51   -7   5  -6    0.46    1.52   -7   5  -6
1.15    1.49   -7   5  -6    1.43    1.60    7  -5   6    0.10    1.49
7  -5   6    2.09    1.72    7  -5   6   -0.14    1.32   -8   5  -6
-0.80    1.26   -8   5  -6   -0.51    1.61   -8   5  -6    0.56
1.70    8  -5   6   -0.33    1.68    8  -5   6   -0.30    1.65    8
-5   6   -0.25    1.39   -9   5  -6    0.79    1.92   -9   5  -6
-0.70    1.54   -9   5  -6   -0.72    1.79    9  -5   6    0.47
1.88    9  -5   6   -0.70    1.70   10   4  -6   45.45    6.80   10
4  -6   37.82    4.84  -10  -4   6   37.39    5.12    9   4  -6
63.11    5.64    9   4  -6   75.63    7.76   -9  -4   6   55.70
5.72    8   4  -6   24.37    3.65    8   4  -6   29.88    5.23   -8
-4   6   26.29    4.00    7   4  -6   14.66    2.76    7   4  -6
6.78    2.93    7   4  -6   12.61    2.60   -7  -4   6    8.71    2.29
-7  -4   6   13.49    1.83   -7  -4   6    7.36    2.53    6   4  -6
2.04    2.33    6   4  -6    1.59    1.69    6   4  -6   -0.23    1.17
-6  -4   6    0.06    0.75   -6  -4   6    1.73    1.31   -6  -4   6
2.69    1.67    5   4  -6   36.69    4.61    5   4  -6   37.10    3.47
5   4  -6   32.82    3.33    5   4  -6   38.42    3.41   -5  -4   6
30.49    1.91   -5  -4   6   32.08    3.60   -5  -4   6   29.72
3.87    4   4  -6   -2.14    1.65    4   4  -6   -0.39    0.99    4
4  -6    0.27    1.46    4   4  -6   -1.36    0.96   -4  -4   6
0.12    1.29   -4  -4   6    1.13    1.21    3   4  -6   16.46    2.30
3   4  -6   18.31    2.54    3   4  -6   17.10    2.39    3   4  -6
16.39    3.08   -3  -4   6   19.75    2.69   -3  -4   6   19.01
2.96    2   4  -6   16.73    2.89    2   4  -6   23.68    2.57    2
4  -6   15.21    2.43    2   4  -6   17.59    2.04   -2  -4   6
15.83    2.43   -2  -4   6   18.32    2.79    1   4  -6   64.52
3.03    1   4  -6   66.75    3.93    1   4  -6   66.79    4.38    1
4  -6   64.38    4.22   -1  -4   6   54.39    3.90   -1  -4   6
65.92    4.42    0   4  -6  100.30    5.12    0   4  -6  105.90
5.10    0   4  -6  102.61    5.73    0  -4   6   95.54    5.45    0
-4   6  109.46    5.58   -1   4  -6  235.19    8.36   -1   4  -6
214.50    8.69   -1   4  -6  243.06    9.77    1  -4   6  225.63
9.05    1  -4   6  218.60    9.15   -2   4  -6  320.01   10.37   -2
4  -6  314.66   11.24   -2   4  -6  304.00   12.07    2  -4   6
319.14   11.51    2  -4   6  299.98   11.08    2  -4   6  292.82
11.26   -3   4  -6  301.18   10.67   -3   4  -6  299.15   12.11   -3
4  -6  296.87   11.19    3  -4   6  294.08   11.05    3  -4   6
300.87   11.43    3  -4   6  323.10   11.38    3  -4   6  320.96
10.85   -4   4  -6  143.58    6.97   -4   4  -6  140.59    7.60   -4
4  -6  141.91    6.60    4  -4   6  147.38    7.15    4  -4   6
149.50    6.74    4  -4   6  142.19    6.50    4  -4   6  136.24
6.75   -5   4  -6  190.38    8.82   -5   4  -6  199.94    9.50   -5
4  -6  194.01    8.50   -5   4  -6  191.20    8.69    5  -4   6
186.21    8.41    5  -4   6  193.47    8.77    5  -4   6  192.19
8.68   -6   4  -6  143.77    7.41   -6   4  -6  132.07    7.13   -6
4  -6  134.23    7.32   -6   4  -6  124.41    7.56    6  -4   6
141.36    7.30    6  -4   6  142.35    7.32    6  -4   6  147.67
7.49   -7   4  -6  110.66    6.78   -7   4  -6  117.62    6.87   -7
4  -6  102.07    6.57    7  -4   6  108.62    6.73    7  -4   6
99.33    6.39    7  -4   6  104.89    6.61   -8   4  -6   82.61
6.07   -8   4  -6   94.13    6.52   -8   4  -6   83.34    6.15    8
-4   6   85.28    6.13    8  -4   6   89.78    6.38    8  -4   6
82.12    6.00   -9   4  -6   40.84    4.89   -9   4  -6   42.35
5.18   -9   4  -6   44.90    5.42    9  -4   6   42.86    5.04    9
-4   6   45.00    5.43  -10   4  -6   36.32    5.22  -10   4  -6
35.53    5.27  -10   4  -6   33.33    4.82   10  -4   6   34.43
4.96   10  -4   6   31.82    5.09   10   3  -6    4.51    2.33   10
3  -6    8.44    3.79  -10  -3   6    7.53    2.64    9   3  -6
2.47    2.59    9   3  -6   -0.39    1.42   -9  -3   6    1.91    1.67
8   3  -6    2.97    2.54    8   3  -6    1.74    1.91    8   3  -6
-0.92    1.20   -8  -3   6   -0.69    1.22   -8  -3   6    1.74
1.72    7   3  -6   -0.06    1.32    7   3  -6   -0.06    2.21    7
3  -6   -1.19    1.52   -7  -3   6   -0.35    1.15   -7  -3   6
-0.37    0.73   -7  -3   6   -0.25    1.15    6   3  -6    6.62
2.11    6   3  -6    3.27    1.43    6   3  -6    6.65    2.97   -6
-3   6    5.55    1.24   -6  -3   6    4.24    1.83   -6  -3   6
6.24    1.88    5   3  -6    7.20    1.80    5   3  -6    4.18    2.65
5   3  -6    7.92    2.12   -5  -3   6    4.76    1.91   -5  -3   6
5.09    1.76   -5  -3   6    5.46    1.03    4   3  -6    0.80    1.03
4   3  -6    2.40    2.11    4   3  -6    2.00    1.54   -4  -3   6
3.10    1.41   -4  -3   6    2.22    1.49    3   3  -6   11.13    1.85
3   3  -6   10.22    1.87    3   3  -6   13.78    2.94   -3  -3   6
16.30    2.66   -3  -3   6    8.68    1.88    2   3  -6    0.33
0.89    2   3  -6    2.43    1.08    2   3  -6    1.42    1.69   -2
-3   6    1.69    1.20   -2  -3   6    1.42    1.04    1   3  -6
-0.14    0.62    1   3  -6    0.34    0.80    1   3  -6    0.64
1.22   -1  -3   6    0.77    0.96   -1  -3   6    0.70    0.95    0
3  -6    3.24    1.44    0   3  -6    2.09    1.24    0   3  -6
2.81    1.17    0  -3   6    2.17    1.11    0  -3   6    3.28    1.30
-1   3  -6   -0.07    0.60   -1   3  -6   -1.00    0.75   -1   3  -6
1.62    0.97   -1   3  -6    0.29    0.99    1  -3   6    0.86    0.67
1  -3   6   -0.69    0.79    1  -3   6    0.95    1.00    1  -3   6
1.14    1.12   -2   3  -6    1.88    1.30   -2   3  -6   -0.16    0.85
-2   3  -6    2.60    0.99   -2   3  -6    1.67    1.06    2  -3   6
1.94    0.97    2  -3   6    2.11    1.22    2  -3   6    0.95    1.03
2  -3   6    3.40    1.28    2  -3   6   -0.68    0.95   -3   3  -6
22.95    2.99   -3   3  -6   21.25    2.27   -3   3  -6   24.37
2.62   -3   3  -6   24.89    2.44    3  -3   6   22.67    2.53    3
-3   6   23.39    2.32    3  -3   6   19.38    2.43    3  -3   6
24.48    2.78    3  -3   6   27.70    2.52   -4   3  -6   11.98
2.22   -4   3  -6   14.65    2.55   -4   3  -6   16.18    2.28   -4
3  -6   18.77    2.32   -4   3  -6   17.35    2.32    4  -3   6
14.53    2.42    4  -3   6   14.80    2.16    4  -3   6   16.54
2.44    4  -3   6   17.44    2.22    4  -3   6   15.63    2.20   -5
3  -6   14.00    2.75   -5   3  -6   17.49    2.37   -5   3  -6
14.58    2.56   -5   3  -6   14.58    2.51   -5   3  -6   19.38
2.72   -5   3  -6   14.40    2.33    5  -3   6   14.40    2.50    5
-3   6   19.45    2.50    5  -3   6   16.50    2.53    5  -3   6
12.95    2.32   -6   3  -6    0.24    1.51   -6   3  -6    0.66
1.11   -6   3  -6    0.44    1.24   -6   3  -6   -0.90    1.04    6
-3   6   -0.10    1.09    6  -3   6    0.35    1.09    6  -3   6
0.14    1.18   -7   3  -6    4.13    1.83   -7   3  -6    1.79    1.49
-7   3  -6   -0.05    1.17    7  -3   6    0.18    1.24    7  -3   6
-0.55    1.32    7  -3   6    0.76    1.33   -8   3  -6    4.32
2.04   -8   3  -6    4.38    2.08   -8   3  -6    4.43    1.95    8
-3   6    5.91    2.17    8  -3   6    5.67    2.04    8  -3   6
3.56    1.85   -9   3  -6    6.19    2.30   -9   3  -6    7.80    2.40
-9   3  -6    4.45    2.20    9  -3   6    6.26    2.48    9  -3   6
6.01    2.32  -10   3  -6    7.49    2.94  -10   3  -6   10.32    2.93
-10   3  -6   11.93    3.29   10  -3   6    3.12    2.17   10  -3   6
5.94    2.72   10   2  -6  110.53    7.22   10   2  -6   96.46    9.31
-10  -2   6   95.02    7.23    9   2  -6   87.35    6.07    9   2  -6
74.76    7.95   -9  -2   6   80.80    6.20    8   2  -6   68.99
5.01    8   2  -6   75.59    7.53    8   2  -6   72.96    4.91   -8
-2   6   71.52    5.48   -8  -2   6   66.21    5.75    7   2  -6
75.00    5.01    7   2  -6   74.24    7.19    7   2  -6   84.96
5.25   -7  -2   6   84.64    4.22   -7  -2   6   79.95    5.58   -7
-2   6   81.83    5.87    6   2  -6   81.50    5.03    6   2  -6
74.86    6.79    6   2  -6   83.89    4.97   -6  -2   6   83.81
5.49   -6  -2   6   81.75    3.85   -6  -2   6   86.96    5.74    5
2  -6   72.43    4.52    5   2  -6   68.82    6.17    5   2  -6
66.60    4.15   -5  -2   6   66.52    4.91   -5  -2   6   74.95
3.27    4   2  -6   28.44    2.53    4   2  -6   24.52    2.67    4
2  -6   23.22    3.76   -4  -2   6   28.29    1.61   -4  -2   6
19.53    2.66   -4  -2   6   18.74    2.89    3   2  -6   31.02
2.61    3   2  -6   29.51    2.46    3   2  -6   23.90    3.47   -3
-2   6   30.84    2.90   -3  -2   6   30.09    3.22    2   2  -6
3.20    1.07    2   2  -6    3.17    1.05    2   2  -6    0.75    1.52
-2  -2   6    2.10    1.09   -2  -2   6    1.00    0.98    1   2  -6
13.28    1.62    1   2  -6   12.78    1.20    1   2  -6   14.50
2.28   -1  -2   6   11.21    2.08   -1  -2   6   10.25    1.85    0
2  -6   10.79    1.82    0   2  -6    8.38    1.43    0   2  -6
11.19    0.84    0  -2   6   10.76    1.77    0  -2   6    9.86
1.85   -1   2  -6   86.04    4.12   -1   2  -6   84.05    3.40   -1
2  -6   88.49    4.46    1  -2   6   84.81    3.40    1  -2   6
89.77    4.47    1  -2   6   83.77    4.67   -2   2  -6   77.14
4.12   -2   2  -6   70.07    3.39   -2   2  -6   74.79    3.89    2
-2   6   72.13    3.79    2  -2   6   69.47    4.15    2  -2   6
73.46    4.07    2  -2   6   70.40    3.39   -3   2  -6  131.40
5.58   -3   2  -6  128.25    5.78   -3   2  -6  131.86    6.00   -3
2  -6  138.00    6.41    3  -2   6  132.41    6.02    3  -2   6
131.23    5.79    3  -2   6  133.17    5.96    3  -2   6  131.75
6.22    3  -2   6  134.83    5.60   -4   2  -6  205.92    8.46   -4
2  -6  205.22    8.44   -4   2  -6  201.60    8.14   -4   2  -6
196.60    8.49   -4   2  -6  197.95    8.08    4  -2   6  208.66
8.43    4  -2   6  208.78    8.14    4  -2   6  216.36    8.32    4
-2   6  214.60    8.19   -5   2  -6  120.23    6.09   -5   2  -6
133.34    6.49   -5   2  -6  123.55    6.18   -5   2  -6  137.18
6.37   -5   2  -6  121.95    6.15    5  -2   6  110.61    5.92    5
-2   6  126.95    6.11    5  -2   6  124.50    6.22    5  -2   6
124.20    6.11   -6   2  -6  206.35    9.11   -6   2  -6  203.05
8.75   -6   2  -6  202.95    8.94   -6   2  -6  203.98    8.78    6
-2   6  196.94    8.95    6  -2   6  193.20    8.86    6  -2   6
215.02    8.91    6  -2   6  213.11    8.77   -7   2  -6  144.43
7.47   -7   2  -6  150.37    7.58   -7   2  -6  151.47    7.85    7
-2   6  152.39    7.58    7  -2   6  150.71    7.75    7  -2   6
157.99    7.57    7  -2   6  153.61    7.89   -8   2  -6   70.05
5.16   -8   2  -6   59.44    5.41   -8   2  -6   74.96    5.36    8
-2   6   67.24    5.59    8  -2   6   70.25    5.37    8  -2   6
70.41    5.15   -9   2  -6   57.42    5.29   -9   2  -6   54.04
5.20   -9   2  -6   74.83    6.35    9  -2   6   64.32    5.87    9
-2   6   65.42    5.49  -10   2  -6   59.86    6.27  -10   2  -6
48.80    5.20   10  -2   6   60.54    5.67   10  -2   6   42.89
5.49  -11   2  -6   59.82    6.02  -11   2  -6   45.89    6.15   11
-2   6   56.25    6.48   11  -2   6   40.45    5.28   10   1  -6
11.29    4.05  -10  -1   6    9.97    3.07    9   1  -6    4.21
2.01    9   1  -6    5.10    3.28   -9  -1   6    2.07    2.00    8
1  -6   -1.11    2.07    8   1  -6    3.60    1.93    8   1  -6
0.12    1.27   -8  -1   6    1.51    1.55    7   1  -6    9.74    2.37
7   1  -6    8.23    2.08    7   1  -6   17.20    4.10   -7  -1   6
7.22    2.20   -7  -1   6    7.97    2.26   -7  -1   6   12.21    1.80
6   1  -6   14.06    2.31    6   1  -6   16.48    2.66    6   1  -6
16.22    3.85   -6  -1   6   10.18    2.33   -6  -1   6   18.80
2.96   -6  -1   6   11.42    1.62    5   1  -6    5.15    1.83    5
1  -6    1.64    1.23    5   1  -6    9.80    3.10   -5  -1   6
5.26    1.64   -5  -1   6    4.26    1.75   -5  -1   6    3.16    0.89
4   1  -6    0.88    0.85    4   1  -6    1.80    1.34    4   1  -6
-0.62    1.97   -4  -1   6    2.13    1.19   -4  -1   6   -0.39
0.50   -4  -1   6    0.25    0.98    3   1  -6   24.60    3.35    3
1  -6   19.77    1.91    3   1  -6   21.75    2.17   -3  -1   6
18.59    2.33   -3  -1   6   18.94    2.58    2   1  -6    3.15
1.02    2   1  -6    4.83    1.05    2   1  -6    1.41    1.45   -2
-1   6    3.75    1.30   -2  -1   6    4.63    1.28    1   1  -6
3.80    0.91    1   1  -6    2.36    1.24    1   1  -6    5.62    0.87
-1  -1   6    4.39    1.20   -1  -1   6    5.71    1.50    0   1  -6
-0.38    0.83    0   1  -6   -0.54    0.54    0  -1   6    0.67
0.45    0  -1   6    0.68    0.81    0  -1   6   -0.55    0.59   -1
1  -6    0.21    0.76   -1   1  -6    0.94    0.68    1  -1   6
-0.36    0.83    1  -1   6    0.82    0.88    1  -1   6    0.16
0.68    1  -1   6   -0.28    0.48   -2   1  -6    3.85    1.07   -2
1  -6    4.98    1.40    2  -1   6    4.36    1.04    2  -1   6
4.62    1.40    2  -1   6    5.26    1.19    2  -1   6    4.79    1.31
2  -1   6    3.88    1.30   -3   1  -6   10.06    1.92   -3   1  -6
9.70    1.56   -3   1  -6   13.01    2.07    3  -1   6    8.03    1.67
3  -1   6    9.23    1.68    3  -1   6    9.75    1.85    3  -1   6
10.33    1.60    3  -1   6   10.97    1.60   -4   1  -6   26.08
2.90   -4   1  -6   23.32    2.69   -4   1  -6   27.96    2.69   -4
1  -6   27.17    2.79   -4   1  -6   27.30    2.57    4  -1   6
27.79    2.92    4  -1   6   26.74    2.60    4  -1   6   23.52
2.41    4  -1   6   34.42    3.05    4  -1   6   26.34    2.55   -5
1  -6   37.78    3.29   -5   1  -6   41.47    3.31   -5   1  -6
43.71    3.33   -5   1  -6   47.80    3.65    5  -1   6   50.75
3.52    5  -1   6   42.76    3.80    5  -1   6   47.54    3.40    5
-1   6   43.27    3.46    5  -1   6   47.56    3.55   -6   1  -6
69.88    4.44   -6   1  -6   66.09    4.56   -6   1  -6   73.81
4.45   -6   1  -6   76.54    4.58    6  -1   6   68.91    4.40    6
-1   6   65.80    4.77    6  -1   6   73.15    4.48    6  -1   6
56.68    4.33   -7   1  -6   51.17    4.21   -7   1  -6   57.83
4.80    7  -1   6   54.88    4.17    7  -1   6   46.78    4.36    7
-1   6   48.81    4.09    7  -1   6   54.04    4.66   -8   1  -6
38.81    3.96   -8   1  -6   28.67    3.96    8  -1   6   50.74
4.87    8  -1   6   40.14    4.41    8  -1   6   34.93    3.90   -9
1  -6   28.08    4.15   -9   1  -6   24.48    3.63    9  -1   6
28.73    4.13    9  -1   6   27.41    4.21    9  -1   6   20.95
3.48  -10   1  -6   21.32    3.61  -10   1  -6   12.09    3.27   10
-1   6   13.90    3.49   10  -1   6   19.50    3.92   10  -1   6
15.91    3.36  -11   1  -6   33.54    4.72  -11   1  -6   40.30
5.66   11  -1   6   32.68    4.77   11  -1   6   29.53    5.05   10
0  -6   55.40    7.52  -10   0   6   58.17    6.10    9   0  -6
88.05    8.44   -9   0   6   85.96    6.54    8   0  -6  126.98
6.76    8   0  -6  117.16    8.99    8   0  -6  122.68    6.03   -8
0   6  113.00    7.15    7   0  -6  181.70    7.79    7   0  -6
179.10    7.98    7   0  -6  176.17   10.69   -7   0   6  163.79
8.35   -7   0   6  175.13    8.68   -7   0   6  179.89    6.99    6
0  -6  124.82    6.13    6   0  -6  125.92    8.48    6   0  -6
125.11    6.00   -6   0   6  109.49    6.38   -6   0   6  119.04
6.54   -6   0   6  130.15    5.25    5   0  -6  115.89    5.29    5
0  -6  111.72    5.60    5   0  -6  115.12    7.68   -5   0   6
117.26    4.61   -5   0   6  101.69    5.77   -5   0   6  112.95
6.12    4   0  -6  120.95    5.69    4   0  -6  127.66    7.80    4
0  -6  129.33    5.35   -4   0   6  129.86    4.63   -4   0   6
126.94    6.13   -4   0   6  135.39    6.55    3   0  -6  121.98
4.70    3   0  -6  110.89    4.93    3   0  -6  106.13    6.48   -3
0   6  122.58    6.00   -3   0   6  119.44    3.76   -3   0   6
115.49    5.50    2   0  -6   24.54    1.74    2   0  -6   27.47
2.05    2   0  -6   25.34    3.11   -2   0   6   26.45    2.38   -2
0   6   29.77    1.78   -2   0   6   31.75    2.99    1   0  -6
35.54    3.15    1   0  -6   34.81    1.97    1   0  -6   36.45
1.89   -1   0   6   37.61    2.55   -1   0   6   33.89    3.02   -1
0   6   37.43    1.91    0   0  -6   -0.92    0.67    0   0  -6
1.96    0.64    0   0   6    0.34    0.77    0   0   6    1.07    0.56
0   0   6    0.37    0.64    0   0   6    1.58    1.07   -1   0  -6
24.48    2.57   -1   0  -6   23.34    1.65    1   0   6   21.02
2.39    1   0   6   23.78    2.05    1   0   6   27.44    2.68    1
0   6   24.19    1.71   -2   0  -6    5.38    1.04   -2   0  -6
3.90    1.27    2   0   6    5.16    1.39    2   0   6    4.57    1.00
2   0   6    3.58    0.98    2   0   6    5.68    1.23    2   0   6
3.66    1.26   -3   0  -6   20.06    2.48   -3   0  -6   22.56    1.99
-3   0  -6   21.81    2.57    3   0   6   19.08    2.42    3   0   6
19.92    2.00    3   0   6   22.01    2.51    3   0   6   23.15
2.22    3   0   6   21.64    1.95   -4   0  -6   15.56    1.91   -4
0  -6   11.19    2.22   -4   0  -6   12.03    2.16   -4   0  -6
17.27    2.01    4   0   6   14.83    2.35    4   0   6   13.06
2.14    4   0   6   13.49    1.78    4   0   6   13.64    2.00    4
0   6   14.49    1.88   -5   0  -6   18.77    2.26   -5   0  -6
21.31    2.75   -5   0  -6   23.15    2.51    5   0   6   20.77
2.87    5   0   6   24.87    2.52    5   0   6   19.36    2.54    5
0   6   20.55    2.22    5   0   6   19.83    2.66   -6   0  -6
26.18    3.07   -6   0  -6   20.96    2.56    6   0   6   19.30
2.60    6   0   6   20.00    2.85    6   0   6   22.28    3.13   -7
0  -6   48.20    4.32   -7   0  -6   48.58    3.88    7   0   6
41.66    4.07    7   0   6   49.47    4.58    7   0   6   52.87
4.01   -8   0  -6   75.71    4.96    8   0   6   77.60    5.60    8
0   6   75.39    5.76    8   0   6   66.27    4.86   -9   0  -6
32.87    4.43   -9   0  -6   42.37    4.19    9   0   6   36.69
4.74    9   0   6   33.76    4.03    9   0   6   35.54    4.49  -10
0  -6   40.99    5.16   10   0   6   39.55    5.17   10   0   6
38.88    4.68   10   0   6   41.75    5.15  -11   0  -6   16.68
3.77   11   0   6   16.35    3.66   11   0   6   19.86    4.18   11
0   6   16.39    3.82   10  -1  -6   19.18    5.05  -10   1   6
23.91    4.38    9  -1  -6   13.19    4.12   -9   1   6   25.04
4.11    8  -1  -6   28.60    5.44   -8   1   6   26.12    3.90    7
-1  -6   28.77    5.07    7  -1  -6   41.01    3.59   -7   1   6
36.89    2.93   -7   1   6   42.30    4.37    6  -1  -6  116.19
5.88    6  -1  -6  103.93    7.94    6  -1  -6  115.83    5.60   -6
1   6  119.86    6.29   -6   1   6  115.81    5.01   -6   1   6
112.03    6.47    5  -1  -6   51.69    5.65    5  -1  -6   55.66
3.86    5  -1  -6   55.52    3.36   -5   1   6   58.47    3.08   -5
1   6   50.54    4.13   -5   1   6   54.69    3.97    4  -1  -6
56.96    3.15    4  -1  -6   56.98    5.34    4  -1  -6   48.57
3.42   -4   1   6   55.69    2.76   -4   1   6   57.50    3.63   -4
1   6   52.85    3.77   -4   1   6   52.80    3.74    3  -1  -6
62.78    3.56    3  -1  -6   75.39    3.27    3  -1  -6   65.04
4.95   -3   1   6   76.39    4.42   -3   1   6   70.79    4.07   -3
1   6   68.41    3.69    2  -1  -6   37.49    1.87    2  -1  -6
35.64    2.38    2  -1  -6   30.59    3.33   -2   1   6   29.87
2.49   -2   1   6   35.87    2.32   -2   1   6   36.29    2.91    1
-1  -6   29.81    1.89    1  -1  -6   32.55    1.43    1  -1  -6
27.88    2.88   -1   1   6   31.46    1.99   -1   1   6   24.12
2.58    0  -1  -6   38.14    3.24    0  -1  -6   38.65    1.50    0
-1  -6   38.39    1.69    0   1   6   37.64    2.39    0   1   6
39.50    3.31    0   1   6   39.63    2.96    0   1   6   42.21
2.35   -1  -1  -6   42.38    3.23   -1  -1  -6   43.59    1.90    1
1   6   43.04    2.51    1   1   6   46.05    2.55    1   1   6
42.49    3.21    1   1   6   41.80    3.15   -2  -1  -6    0.51
0.56   -2  -1  -6    0.34    0.83   -2  -1  -6    0.59    0.87    2
1   6    0.68    0.83    2   1   6   -0.27    0.58    2   1   6
0.20    0.61    2   1   6   -0.30    0.49    2   1   6   -1.04    0.66
-3  -1  -6    1.62    1.17   -3  -1  -6   -0.53    0.64   -3  -1  -6
1.06    0.97    3   1   6    1.14    0.79    3   1   6   -0.01    0.81
3   1   6    0.03    0.63    3   1   6    0.64    1.00    3   1   6
0.91    0.66   -4  -1  -6    4.91    1.73   -4  -1  -6    6.23    1.73
-4  -1  -6    6.97    1.31    4   1   6    7.43    1.61    4   1   6
6.22    1.67    4   1   6    9.66    1.50    4   1   6    5.04    1.25
4   1   6    8.72    2.01   -5  -1  -6   37.22    2.73   -5  -1  -6
26.29    3.14    5   1   6   41.14    2.95    5   1   6   45.44
3.97    5   1   6   35.27    3.24    5   1   6   37.75    3.47    5
1   6   35.82    2.69   -6  -1  -6   35.05    2.90   -6  -1  -6
30.83    3.47    6   1   6   32.64    3.66    6   1   6   30.44
3.37    6   1   6   33.66    3.01   -7  -1  -6   43.15    4.31   -7
-1  -6   43.08    3.50    7   1   6   49.90    4.69    7   1   6
43.54    4.24    7   1   6   49.36    3.98   -8  -1  -6   71.69
5.70    8   1   6   71.19    5.67    8   1   6   75.22    5.09    8
1   6   65.43    5.47    9   1   6   83.96    6.24    9   1   6
95.92    6.12    9   1   6  103.34    7.22  -10  -1  -6   81.74
6.47   10   1   6   75.58    6.67   10   1   6   93.43    7.15   10
1   6   76.14    6.15  -11  -1  -6   50.60    5.99   11   1   6
49.85    6.22   11   1   6   48.70    5.47   11   1   6   43.57
5.59   10  -2  -6   19.94    5.22  -10   2   6   18.65    3.83    9
-2  -6   10.41    3.81   -9   2   6   17.39    3.48    8  -2  -6
23.32    4.99   -8   2   6   26.81    4.01    7  -2  -6   62.28
6.84    7  -2  -6   72.63    4.50   -7   2   6   67.13    3.91   -7
2   6   62.47    5.27    6  -2  -6   88.11    4.98    6  -2  -6
97.83    7.45   -6   2   6   83.37    5.49   -6   2   6   82.51
5.38   -6   2   6   77.79    4.06    5  -2  -6   87.63    4.77    5
-2  -6   70.83    6.44   -5   2   6   79.73    4.74   -5   2   6
77.38    3.80   -5   2   6   83.55    5.04   -5   2   6   77.02
4.92    4  -2  -6   78.35    4.39    4  -2  -6   85.74    6.32   -4
2   6   81.90    4.72   -4   2   6   83.90    3.64   -4   2   6
86.64    4.85   -4   2   6   83.18    4.75    3  -2  -6   22.26
3.42    3  -2  -6   26.18    2.36   -3   2   6   24.64    1.67   -3
2   6   27.62    2.71   -3   2   6   19.68    2.27   -3   2   6
32.60    2.77    2  -2  -6   28.52    2.29    2  -2  -6   29.24
3.37   -2   2   6   28.91    2.72   -2   2   6   28.06    2.40   -2
2   6   28.21    1.34    1  -2  -6   45.40    2.48    1  -2  -6
37.42    3.43   -1   2   6   49.64    2.73   -1   2   6   43.61
2.74   -1   2   6   44.18    3.17    0  -2  -6   73.78    2.88    0
-2  -6   67.30    4.28    0   2   6   78.81    3.71    0   2   6
70.87    4.36    0   2   6   72.46    3.26    0   2   6   65.07
4.07   -1  -2  -6   10.35    1.96   -1  -2  -6   11.48    1.98    1
2   6    7.78    1.81    1   2   6    8.74    1.39    1   2   6
8.91    1.77   -2  -2  -6   44.48    2.02   -2  -2  -6   45.52    3.38
-2  -2  -6   40.44    3.25    2   2   6   44.85    3.29    2   2   6
41.56    3.26    2   2   6   44.41    2.02    2   2   6   45.69
2.90   -3  -2  -6   15.97    2.36   -3  -2  -6   14.73    2.34    3
2   6   18.76    1.58    3   2   6   10.88    2.12    3   2   6
19.06    2.13    3   2   6   14.51    2.27   -4  -2  -6    3.72
1.52   -4  -2  -6    2.95    1.49    4   2   6    3.68    1.64    4
2   6    1.78    1.20    4   2   6    2.11    1.09    4   2   6
3.56    1.02   -5  -2  -6    1.02    1.25    5   2   6   -0.10    1.09
5   2   6    0.61    0.97    5   2   6    1.39    0.96   -6  -2  -6
0.33    1.42    6   2   6    2.18    1.22    6   2   6    1.13    1.21
6   2   6    1.41    1.56   -7  -2  -6    9.09    2.37    7   2   6
6.16    1.76    7   2   6    6.87    2.08    7   2   6   10.27    2.51
-8  -2  -6    0.55    1.89    8   2   6    1.55    1.45    8   2   6
2.32    1.53    8   2   6    1.97    1.84    9   2   6    4.07    2.16
9   2   6    1.00    1.46    9   2   6    3.00    1.82   10   2   6
6.01    2.27   10   2   6    3.60    2.09   10   2   6    0.73    2.11
-11  -2  -6    9.86    3.03   11   2   6    7.28    2.93   11   2   6
3.65    2.31   11   2   6   10.92    3.22    9  -3  -6   18.59    4.80
-9   3   6   25.10    4.27    8  -3  -6   26.92    5.14   -8   3   6
27.42    4.04    7  -3  -6   71.73    7.34    7  -3  -6   91.95
4.95   -7   3   6   84.38    5.94   -7   3   6   80.21    5.71    6
-3  -6  113.25    5.69    6  -3  -6  120.09    8.43   -6   3   6
104.33    4.91   -6   3   6  109.91    6.31   -6   3   6   91.50
6.13    5  -3  -6  108.37    5.59    5  -3  -6  117.18    8.11   -5
3   6  119.66    4.99   -5   3   6  120.80    6.60   -5   3   6
115.56    6.11    4  -3  -6  152.67    6.56    4  -3  -6  151.50
8.66   -4   3   6  161.74    5.85   -4   3   6  162.12    7.61   -4
3   6  159.41    7.02   -4   3   6  171.95    7.29    3  -3  -6
219.38    8.02    3  -3  -6  237.93   10.45   -3   3   6  212.45
8.68   -3   3   6  217.74    8.36   -3   3   6  226.63    7.10   -3
3   6  234.26    9.05    2  -3  -6  261.86    8.79    2  -3  -6
241.62   10.63   -2   3   6  259.99    9.69   -2   3   6  261.56
8.96   -2   3   6  268.21    9.94   -2   3   6  270.15    7.55    1
-3  -6  170.70    6.09    1  -3  -6  169.83    7.88   -1   3   6
173.51    7.33   -1   3   6  173.63    6.93   -1   3   6  171.00
6.12    0  -3  -6  150.73    6.92    0  -3  -6  159.80    5.40    0
-3  -6  166.84    7.36    0   3   6  150.61    7.14    0   3   6
163.94    6.99    0   3   6  155.98    6.42    0   3   6  152.20
5.33   -1  -3  -6   61.47    2.43   -1  -3  -6   56.28    3.92   -1
-3  -6   50.83    3.68    1   3   6   51.81    3.63    1   3   6
62.11    3.51    1   3   6   57.40    3.95   -2  -3  -6   66.07
4.27   -2  -3  -6   65.54    4.28    2   3   6   65.87    3.78    2
3   6   68.74    4.31    2   3   6   65.20    4.17   -3  -3  -6
57.76    4.13   -3  -3  -6   51.74    3.94    3   3   6   60.54
3.72    3   3   6   51.44    3.88    3   3   6   64.15    2.79    3
3   6   53.76    3.99   -4  -3  -6   52.47    4.07   -4  -3  -6
44.70    4.06    4   3   6   55.10    2.95    4   3   6   50.92
3.60    4   3   6   52.83    4.08   -5  -3  -6    3.52    1.68    5
3   6    4.62    1.58    5   3   6    4.81    1.32    5   3   6
4.06    1.74   -6  -3  -6   -0.01    1.39    6   3   6    1.91    1.30
6   3   6    1.00    1.03    6   3   6    2.10    1.54   -7  -3  -6
6.12    2.29    7   3   6    5.35    1.89    7   3   6    8.53    1.99
7   3   6    6.81    2.27   -8  -3  -6   19.45    3.73    8   3   6
18.75    3.17    8   3   6   16.20    3.31    8   3   6   17.31
2.82   -9  -3  -6   66.74    6.34    9   3   6   59.67    5.99    9
3   6   52.95    4.79    9   3   6   59.65    5.49   10   3   6
29.25    4.45   10   3   6   47.62    5.88   10   3   6   44.72
4.69   11   3   6   52.56    6.45   11   3   6   39.51    4.95   11
3   6   39.87    5.35    9  -4  -6    0.30    3.09   -9   4   6
2.35    2.15    8  -4  -6    9.77    3.61   -8   4   6    6.51    2.39
-8   4   6    5.85    2.54    7  -4  -6    0.98    2.40   -7   4   6
1.97    1.54   -7   4   6    2.99    1.82    6  -4  -6    8.69    3.16
6  -4  -6    3.43    1.81   -6   4   6    5.76    1.41   -6   4   6
4.53    2.04   -6   4   6    6.28    2.15    5  -4  -6   11.58    3.52
5  -4  -6   10.36    2.12   -5   4   6    9.01    2.15   -5   4   6
8.74    2.40   -5   4   6    7.29    1.48    4  -4  -6   10.12    3.06
4  -4  -6   12.13    2.08   -4   4   6   13.98    1.72   -4   4   6
17.27    2.91   -4   4   6   15.39    2.37    3  -4  -6   15.86
2.14    3  -4  -6   18.40    3.32   -3   4   6   21.63    2.43   -3
4   6   17.89    1.69   -3   4   6   14.88    2.49    2  -4  -6
2.67    1.19    2  -4  -6    0.12    0.88    2  -4  -6    1.88    1.57
-2   4   6    0.62    0.81   -2   4   6    0.86    0.95   -2   4   6
1.80    0.70   -2   4   6    1.31    1.08    1  -4  -6    1.60    1.46
1  -4  -6    0.62    0.93    1  -4  -6    0.04    0.89   -1   4   6
-0.23    0.69   -1   4   6    2.59    1.12   -1   4   6    0.65
0.42   -1   4   6    1.84    1.08    0  -4  -6    0.11    0.70    0
-4  -6   -0.06    0.77    0  -4  -6   -1.05    0.88    0   4   6
-1.02    0.61    0   4   6    0.89    0.94    0   4   6    0.39
1.18   -1  -4  -6    3.99    0.89   -1  -4  -6    2.04    1.34   -1
-4  -6    2.86    1.32    1   4   6    2.38    1.12    1   4   6
2.67    1.14    1   4   6    3.26    1.46   -2  -4  -6   38.91    3.47
-2  -4  -6   31.59    3.28   -2  -4  -6   34.75    1.85    2   4   6
36.06    3.07    2   4   6   37.24    3.35    2   4   6   37.81
3.41   -3  -4  -6    9.77    2.13   -3  -4  -6   10.75    2.24    3
4   6    7.78    1.89    3   4   6    9.92    2.14    3   4   6
10.32    1.92   -4  -4  -6   15.31    2.73   -4  -4  -6   18.16
2.83    4   4   6   17.01    1.78    4   4   6   22.83    2.99    4
4   6   18.48    2.55   -5  -4  -6   -0.57    1.25    5   4   6
0.33    1.38    5   4   6   -0.43    0.90    5   4   6    1.68    1.00
-6  -4  -6    0.57    1.50    6   4   6    0.99    1.33    6   4   6
0.36    0.97    6   4   6    0.66    1.30   -7  -4  -6    1.76    1.85
7   4   6    0.84    1.25    7   4   6    0.83    1.41    7   4   6
1.41    1.21   -8  -4  -6   -2.93    1.56    8   4   6    1.01    1.30
8   4   6   -0.13    1.16    8   4   6    3.89    1.91   -9  -4  -6
-2.09    1.98    9   4   6    0.18    1.52    9   4   6    0.26
1.46    9   4   6   -0.51    1.31   10   4   6    3.52    2.11   10
4   6    9.18    2.63   10   4   6    4.63    2.16   11   4   6
-1.24    1.61   11   4   6    0.12    1.74   11   4   6   -0.80
2.05    9  -5  -6   -1.07    2.70   -9   5   6    1.74    2.26    8
-5  -6   11.01    3.90   -8   5   6    4.97    2.28   -8   5   6
6.74    2.84    7  -5  -6   11.55    3.93   -7   5   6   15.63    3.47
-7   5   6   24.86    3.75    6  -5  -6   41.13    3.51    6  -5  -6
39.36    5.58   -6   5   6   44.64    4.40   -6   5   6   42.79
4.74   -6   5   6   39.83    3.18    5  -5  -6  153.09    9.41    5
-5  -6  158.32    6.90   -5   5   6  170.31    6.54   -5   5   6
142.45    7.43   -5   5   6  156.93    8.53    4  -5  -6  167.02
9.22    4  -5  -6  165.15    6.96   -4   5   6  166.26    7.48   -4
5   6  172.44    8.60   -4   5   6  164.95    6.35    3  -5  -6
189.14    7.47    3  -5  -6  186.09    9.35   -3   5   6  189.13
7.65   -3   5   6  186.41    6.61   -3   5   6  183.63    8.65   -3
5   6  201.24    7.91    2  -5  -6  168.70    6.91    2  -5  -6
188.71    8.78    2  -5  -6  180.62    7.59   -2   5   6  175.90
8.19   -2   5   6  179.42    6.00   -2   5   6  176.67    6.83   -2
5   6  180.32    7.53    1  -5  -6  160.69    6.35    1  -5  -6
159.17    7.22    1  -5  -6  162.33    7.88   -1   5   6  155.34
7.38   -1   5   6  166.52    5.08   -1   5   6  161.49    7.14    0
-5  -6  223.61    9.56    0  -5  -6  231.32    9.35    0  -5  -6
233.57    7.89    0   5   6  227.02    9.20    0   5   6  230.84
9.20    0   5   6  231.94    9.64    0   5   6  212.09    8.64   -1
-5  -6  254.75    8.14   -1  -5  -6  255.29   10.21   -1  -5  -6
250.76   10.23    1   5   6  252.80    9.94    1   5   6  243.88
9.04    1   5   6  245.51   10.11    1   5   6  247.24   10.06   -2
-5  -6  154.42    7.38   -2  -5  -6  149.50    7.43   -2  -5  -6
154.09    5.44    2   5   6  161.30    6.16    2   5   6  147.74
7.24    2   5   6  166.20    7.31   -3  -5  -6  178.67    8.48   -3
-5  -6  166.75    8.16   -3  -5  -6  185.91    5.87    3   5   6
184.80    6.47    3   5   6  176.48    8.19    3   5   6  172.71
7.88   -4  -5  -6   84.52    5.64   -4  -5  -6  100.74    6.16    4
5   6   96.44    5.87    4   5   6   93.13    5.41   -5  -5  -6
107.52    6.64    5   5   6   95.51    6.22    5   5   6  107.33
6.07   -6  -5  -6   49.44    5.09    6   5   6   57.51    5.12    6
5   6   62.26    3.95    6   5   6   60.98    4.51   -7  -5  -6
11.61    3.10    7   5   6   10.40    2.74    7   5   6   12.47
2.68    7   5   6   19.98    2.70   -8  -5  -6    1.64    2.15    8
5   6   -0.51    1.16    8   5   6    0.17    1.27    8   5   6
1.60    1.70    9   5   6   -0.79    1.29    9   5   6   -0.26    1.75
9   5   6    1.72    1.59   10   5   6    0.78    1.70   10   5   6
0.73    1.87   10   5   6    3.80    2.14   11   5   6    4.04    2.46
11   5   6   10.77    3.58   11   5   6    6.41    2.49    8  -6  -6
-1.62    2.86   -8   6   6    0.66    2.19   -8   6   6    0.04
1.85    7  -6  -6    1.21    2.75   -7   6   6    1.77    2.05   -7
6   6    3.67    2.03    6  -6  -6    1.32    2.70   -6   6   6
1.19    1.59   -6   6   6    1.10    1.88    5  -6  -6   -2.64    1.62
5  -6  -6   -0.11    1.41   -5   6   6   -0.93    1.26   -5   6   6
0.86    1.37   -5   6   6    0.30    0.99    4  -6  -6    1.01    1.31
4  -6  -6    3.86    2.36   -4   6   6   -0.09    0.87   -4   6   6
2.30    1.10   -4   6   6    2.14    1.57    3  -6  -6    6.79    1.74
3  -6  -6    1.84    1.79   -3   6   6    7.78    1.44   -3   6   6
8.30    2.23    2  -6  -6   -0.94    1.45    2  -6  -6    0.26    1.09
2  -6  -6    1.00    1.14   -2   6   6    0.36    0.94   -2   6   6
-0.64    0.89   -2   6   6    1.93    0.88   -2   6   6    0.75
1.26    1  -6  -6    1.09    1.40    1  -6  -6    2.90    1.33    1
-6  -6    2.03    1.22   -1   6   6   -0.47    1.01   -1   6   6
2.08    0.75   -1   6   6    1.88    1.14   -1   6   6    1.86    1.22
0  -6  -6   20.97    2.97    0  -6  -6   26.83    3.01    0  -6  -6
18.53    2.12    0   6   6   20.74    2.95    0   6   6   22.54
2.61    0   6   6   21.48    2.94    0   6   6   24.40    2.82   -1
-6  -6   10.96    2.22   -1  -6  -6   10.39    1.60   -1  -6  -6
14.70    2.52    1   6   6   11.38    2.31    1   6   6   10.71
2.24    1   6   6    8.54    1.76   -2  -6  -6   42.19    3.93   -2
-6  -6   47.76    2.72   -2  -6  -6   46.45    4.02    2   6   6
40.07    3.79    2   6   6   50.61    3.99    2   6   6   40.93
2.99   -3  -6  -6   10.83    2.51   -3  -6  -6   19.84    2.93   -3
-6  -6   16.72    1.70    3   6   6   19.57    2.88    3   6   6
15.25    1.84    3   6   6   16.87    2.73   -4  -6  -6   16.57
3.08   -4  -6  -6   22.54    3.23    4   6   6   16.25    2.72    4
6   6   24.94    3.31    4   6   6   23.70    1.99   -5  -6  -6
28.57    3.99    5   6   6   36.87    4.02    5   6   6   39.80
4.01    5   6   6   37.24    2.13   -6  -6  -6   10.02    2.86    6
6   6    6.83    1.97    6   6   6    4.43    2.04   -7  -6  -6
15.70    3.56    7   6   6   10.44    2.49    7   6   6   11.22
2.82    8   6   6    7.27    2.29    8   6   6   15.52    3.34    8
6   6    5.06    1.91    9   6   6    0.49    1.34    9   6   6
-1.70    1.56    9   6   6    2.12    1.67   10   6   6    1.46
1.85   10   6   6    2.29    1.86   10   6   6    0.73    1.88   11
6   6    0.46    2.09   11   6   6   -0.07    1.80   11   6   6
-1.29    1.76   -8   7   6    2.48    2.48   -8   7   6    4.23
2.43   -7   7   6    0.65    1.77   -7   7   6    4.87    2.58   -6
7   6    2.67    2.26   -6   7   6    3.62    2.20    5  -7  -6
-0.30    1.36    5  -7  -6    0.03    2.13   -5   7   6    2.34
1.85    4  -7  -6   22.47    4.11    4  -7  -6   27.98    2.97   -4
7   6   26.30    4.02   -4   7   6   34.06    2.90    3  -7  -6
59.59    5.36    3  -7  -6   63.51    3.94   -3   7   6   55.97
4.60   -3   7   6   59.70    5.29   -3   7   6   56.17    3.42    2
-7  -6  118.60    7.09    2  -7  -6  123.55    5.77   -2   7   6
112.85    6.96   -2   7   6  114.73    4.89   -2   7   6  122.54
6.75    1  -7  -6  143.76    7.48    1  -7  -6  147.20    6.93    1
-7  -6  133.43    6.04   -1   7   6  136.80    7.02   -1   7   6
129.72    7.34   -1   7   6  139.98    5.14    0  -7  -6   52.64
3.37    0  -7  -6   53.15    4.07    0  -7  -6   53.34    4.24    0
7   6   48.13    4.40    0   7   6   56.25    4.06    0   7   6
46.99    4.19   -1  -7  -6   94.83    5.68   -1  -7  -6   81.76
5.44   -1  -7  -6   89.22    4.39    1   7   6   83.50    4.86    1
7   6   74.39    5.25    1   7   6   88.53    5.50   -2  -7  -6
179.04    8.88   -2  -7  -6  191.84    8.73   -2  -7  -6  180.50
6.90    2   7   6  184.28    7.79    2   7   6  192.37    8.69    2
7   6  181.09    8.75   -3  -7  -6  191.01    8.66   -3  -7  -6
184.64    9.10   -3  -7  -6  182.33    6.72    3   7   6  179.53
8.62    3   7   6  160.23    8.21    3   7   6  177.58    7.42   -4
-7  -6  169.33    6.32   -4  -7  -6  171.64    6.31   -4  -7  -6
147.56    8.62   -4  -7  -6  164.31    8.35    4   7   6  165.64
8.29    4   7   6  159.66    6.71    4   7   6  162.69    8.29   -5
-7  -6   89.55    6.05   -5  -7  -6   84.82    6.39    5   7   6
82.00    5.62    5   7   6   86.01    4.17    5   7   6   82.60
5.88   -6  -7  -6   71.14    6.53    6   7   6   80.40    5.99    6
7   6   85.68    5.92    6   7   6   84.62    3.71   -7  -7  -6
46.39    5.70    7   7   6   50.09    4.92    7   7   6   48.88
5.24    8   7   6   27.27    4.16    8   7   6   25.21    4.29    9
7   6   28.92    4.44    9   7   6   23.41    4.35   10   7   6
6.45    2.63   10   7   6   11.08    3.48   -7   8   6    1.94    2.36
-6   8   6    2.68    2.32   -5   8   6    2.21    1.97    4  -8  -6
-1.93    1.26   -4   8   6    3.01    1.93    3  -8  -6    3.16
1.45   -3   8   6    3.92    1.38   -3   8   6    0.73    1.34   -3
8   6    2.05    1.79    2  -8  -6   17.60    3.26    2  -8  -6
19.30    2.58   -2   8   6   16.74    2.01   -2   8   6   20.33
3.22   -2   8   6   14.45    3.15    1  -8  -6   14.97    2.83    1
-8  -6   12.14    2.14   -1   8   6   15.02    3.01   -1   8   6
15.53    1.75   -1   8   6   16.09    2.81    0  -8  -6   11.59
2.48    0  -8  -6   13.82    2.67    0  -8  -6   17.01    2.28    0
8   6   14.84    2.54    0   8   6   14.79    2.73    0   8   6
7.57    2.28   -1  -8  -6   71.25    4.18   -1  -8  -6   78.04    5.35
-1  -8  -6   80.89    5.25    1   8   6   75.67    5.17    1   8   6
77.70    4.89    1   8   6   57.27    5.10   -2  -8  -6   40.11
4.36   -2  -8  -6   38.05    3.80   -2  -8  -6   49.30    3.22    2
8   6   33.72    3.98    2   8   6   34.55    3.78    2   8   6
35.43    3.41   -3  -8  -6   79.69    5.91   -3  -8  -6   72.67
5.07   -3  -8  -6   72.08    4.03    3   8   6   70.41    5.31    3
8   6   79.29    4.77    3   8   6   78.57    5.27   -4  -8  -6
72.84    5.33   -4  -8  -6   74.38    5.97   -4  -8  -6   62.91
3.80    4   8   6   83.28    5.54    4   8   6   64.77    5.12    4
8   6   68.47    4.30   -5  -8  -6   63.23    5.34   -5  -8  -6
51.26    3.45   -5  -8  -6   51.43    5.62   -5  -8  -6   66.99
3.77    5   8   6   57.55    3.75    5   8   6   63.12    5.43    5
8   6   55.22    5.14   -6  -8  -6   46.10    5.67    6   8   6
52.60    5.20    6   8   6   70.56    5.55    7   8   6   36.34
4.67    7   8   6   48.62    5.37    8   8   6   27.67    4.25    8
8   6   36.69    5.04    9   8   6   33.99    4.80    9   8   6
38.93    5.48   10   8   6    5.65    2.73   10   8   6    5.54
2.79   -6   9   6   11.22    3.36   -5   9   6    3.78    2.30   -4
9   6    1.68    2.03    3  -9  -6    1.89    1.53   -3   9   6
0.52    1.54    2  -9  -6   -0.66    1.17   -2   9   6    1.76    1.17
-2   9   6   -0.91    1.27   -2   9   6    0.57    1.51    1  -9  -6
17.57    2.50   -1   9   6   11.96    2.80   -1   9   6   13.57
1.84   -1   9   6   19.01    3.26    0  -9  -6   66.76    4.23    0
9   6   64.48    4.88    0   9   6   65.37    5.68   -1  -9  -6
33.41    4.06   -1  -9  -6   31.28    3.03   -1  -9  -6   28.85
3.52    1   9   6   30.00    3.56    1   9   6   34.56    4.27    1
9   6   25.76    3.46   -2  -9  -6   19.09    3.14   -2  -9  -6
34.30    4.30   -2  -9  -6   26.17    2.76    2   9   6   29.21
3.46    2   9   6   34.42    4.27    2   9   6   34.13    3.80   -3
-9  -6   27.81    2.77   -3  -9  -6   29.78    4.30   -3  -9  -6
28.33    3.58    3   9   6   23.16    3.12    3   9   6   31.55
3.75    3   9   6   26.39    3.86   -4  -9  -6   37.31    4.92   -4
-9  -6   33.69    2.93   -4  -9  -6   24.86    3.54    4   9   6
27.36    3.68    4   9   6   31.07    4.22   -5  -9  -6   28.52
3.95   -5  -9  -6   33.11    3.06   -5  -9  -6   35.46    5.10    5
9   6   34.53    4.40    5   9   6   35.65    4.25   -6  -9  -6
52.98    3.66   -6  -9  -6   55.58    5.37   -6  -9  -6   43.99
3.56    6   9   6   35.63    4.64    6   9   6   55.68    5.39    7
9   6   32.55    4.62    7   9   6   26.94    4.27    8   9   6
16.63    3.56    8   9   6   26.03    4.49    9   9   6    7.46
2.81    9   9   6    6.22    2.94   -5  10   6    9.47    3.45   -4
10   6    6.35    2.71   -3  10   6   -0.12    1.80   -2  10   6
-0.70    1.46   -1  10   6    1.34    1.14   -1  10   6    4.33
2.07    0  10   6   11.08    2.91    1  10   6   11.71    2.95   -2
-10  -6   33.85    4.70    2  10   6   28.13    4.20   -3 -10  -6
37.45    3.31   -3 -10  -6   32.72    4.88    3  10   6   33.85
3.99    3  10   6   35.86    4.62   -4 -10  -6   54.92    4.98   -4
-10  -6   57.91    4.02   -4 -10  -6   57.20    6.27    4  10   6
60.73    5.83    4  10   6   60.06    5.23   -5 -10  -6   68.89
5.61    5  10   6   74.49    5.79    5  10   6   74.81    6.47   -6
-10  -6   65.85    5.91    6  10   6   63.82    5.91    6  10   6
63.27    6.14   -7 -10  -6   70.33    6.41    7  10   6   70.97
6.57    7  10   6   59.42    6.12    8  10   6   84.98    7.37    8
10   6   68.41    6.73    9  10   6   57.74    6.72   -4  11   6
4.33    2.82   -3  11   6    6.74    2.91   -2  11   6    6.40    2.79
-1  11   6    1.70    2.01    0  11   6    1.80    1.83    1  11   6
0.58    1.61    2  11   6   -0.06    1.47   -3 -11  -6    4.41    2.82
3  11   6    6.19    2.51    4  11   6    1.44    1.73    5  11   6
-0.28    1.59    6  11   6    0.91    1.76    6  11   6   -0.24
1.86   -7 -11  -6   10.75    3.21    7  11   6    1.43    2.11    7
11   6    5.32    2.63   -8 -11  -6    0.20    2.12    8  11   6
1.29    2.03    8  11   6    2.47    2.47   -2  12   6   15.83    3.95
-1  12   6   13.03    3.55    0  12   6    1.32    2.02    1  12   6
-1.26    1.61    2  12   6   -1.06    1.43    3  12   6    3.56
2.26    4  12   6   14.68    3.66    5  12   6   20.86    4.05    6
12   6   33.24    5.09    1  13   6    2.13    2.32    2  13   6
-0.33    1.92    3  13   6    0.68    1.89    4  13   6    0.79
2.03   -1 -12   7   -0.03    1.75    4  11  -7    0.63    2.82    4
11  -7    1.37    2.38   -4 -11   7    1.36    1.90    3  11  -7
10.98    3.27    3  11  -7   10.43    3.68   -3 -11   7   20.30
3.94    2  11  -7   30.66    4.82    2  11  -7   20.50    4.83   -2
-11   7   21.29    3.91    1  11  -7   25.29    4.47    1  11  -7
16.63    4.51   -1 -11   7   26.40    4.47    0  11  -7   36.81
5.16    0  11  -7   33.28    6.06    0 -11   7   43.97    5.38   -1
11  -7   46.34    6.97   -1  11  -7   49.68    5.94    1 -11   7
51.42    5.78   -2  11  -7   57.15    6.27   -2  11  -7   59.62
7.74    2 -11   7   55.41    6.02   -3  11  -7   45.86    7.12   -3
11  -7   61.99    6.62    3 -11   7   49.81    5.89    6  10  -7
1.83    2.22   -6 -10   7   -1.23    1.24    5  10  -7    4.70    2.34
-5 -10   7    8.01    2.70    4  10  -7    0.09    1.94    4  10  -7
-1.73    1.83   -4 -10   7   -0.57    1.44    3  10  -7    1.04
2.10    3  10  -7    1.49    1.86   -3 -10   7    1.44    1.62    2
10  -7   -1.07    2.03    2  10  -7   -1.36    1.47   -2 -10   7
0.05    1.39    1  10  -7   -2.44    2.05    1  10  -7    0.42    1.87
-1 -10   7    0.85    1.54    0  10  -7    6.14    3.14    0  10  -7
3.90    2.15    0 -10   7    5.16    2.23   -1  10  -7    6.58    2.61
-1  10  -7   -0.12    2.13    1 -10   7    4.31    2.09   -2  10  -7
12.26    3.08   -2  10  -7    8.71    3.61    2 -10   7    9.90
2.83   -3  10  -7    7.36    2.92   -3  10  -7    7.58    3.52    3
-10   7    4.24    2.26   -4  10  -7   14.71    3.52   -4  10  -7
21.69    4.29   -4  10  -7   11.77    4.06    4 -10   7   14.10
3.42   -5  10  -7   23.14    4.53   -5  10  -7   24.00    5.33   -5
10  -7   23.50    4.55    5 -10   7   16.25    3.71    7   9  -7
45.36    5.52   -7  -9   7   34.29    5.00    6   9  -7   32.63
4.71   -6  -9   7   28.51    4.42    5   9  -7   13.60    3.20   -5
-9   7   23.43    3.93    4   9  -7    8.42    2.72    4   9  -7
10.51    3.30   -4  -9   7    8.58    2.67    3   9  -7   13.35
3.52    3   9  -7   11.57    2.83    3   9  -7   18.10    3.44   -3
-9   7   16.93    3.35    2   9  -7    1.96    1.64    2   9  -7
1.33    1.99   -2  -9   7   -1.69    1.15   -2  -9   7    0.19    1.28
1   9  -7    5.05    2.13    1   9  -7    0.52    2.06   -1  -9   7
1.35    1.59   -1  -9   7    1.43    1.61    0   9  -7    2.58    2.44
0   9  -7   -0.63    1.39    0  -9   7    3.22    1.86   -1   9  -7
9.75    3.38   -1   9  -7   10.25    2.82    1  -9   7   17.14    3.36
-2   9  -7   39.39    4.80   -2   9  -7   34.71    5.52    2  -9   7
27.47    4.09   -3   9  -7   43.70    6.16   -3   9  -7   27.93
4.38    3  -9   7   38.83    4.81   -4   9  -7   29.50    4.61   -4
9  -7   44.45    6.44   -4   9  -7   27.56    4.51    4  -9   7
32.02    4.56   -5   9  -7   28.59    4.67   -5   9  -7   34.03
5.07   -5   9  -7   33.61    5.90    5  -9   7   30.76    4.68    5
-9   7   34.13    5.00   -6   9  -7   42.76    5.70   -6   9  -7
55.11    6.20   -6   9  -7   43.34    6.55    6  -9   7   54.98
6.02    6  -9   7   52.97    6.17    8   8  -7   28.40    4.66   -8
-8   7   26.37    4.43    7   8  -7   28.88    4.41   -7  -8   7
25.73    4.39    6   8  -7   19.17    3.68   -6  -8   7   18.39
3.68    5   8  -7    9.32    2.63   -5  -8   7    7.56    2.46    4
8  -7   14.28    3.39    4   8  -7    7.53    2.51    4   8  -7
12.25    2.90   -4  -8   7    4.48    1.94    3   8  -7   18.55
3.00    3   8  -7   14.77    3.33    3   8  -7   14.63    3.09   -3
-8   7   13.90    3.25   -3  -8   7   14.38    2.98    2   8  -7
8.11    2.74    2   8  -7    7.71    2.35   -2  -8   7    6.80    2.23
-2  -8   7    5.03    2.10    1   8  -7   -0.15    1.41    1   8  -7
2.18    2.02   -1  -8   7    3.28    1.68   -1  -8   7    3.06    1.71
0   8  -7    4.28    1.97    0   8  -7   -1.67    1.49    0  -8   7
1.32    1.53    0  -8   7    3.57    1.81   -1   8  -7   -1.80    0.94
-1   8  -7   -1.29    1.66    1  -8   7    0.61    1.32   -2   8  -7
11.93    2.86   -2   8  -7    9.61    3.31    2  -8   7   11.30
2.70   -3   8  -7   44.43    4.95   -3   8  -7   47.17    5.92    3
-8   7   45.37    4.91   -4   8  -7   18.51    4.29   -4   8  -7
19.08    3.65    4  -8   7   16.78    3.54    4  -8   7   22.51
3.68   -5   8  -7   10.02    3.00   -5   8  -7   24.75    4.23   -5
8  -7   11.92    3.67    5  -8   7   22.76    3.91    5  -8   7
22.61    4.06   -6   8  -7   30.32    5.35   -6   8  -7   16.53
3.89   -6   8  -7   19.91    3.83    6  -8   7   20.42    4.06    6
-8   7   17.91    3.72   -7   8  -7   52.34    6.07   -7   8  -7
45.34    5.74    7  -8   7   51.80    5.84    7  -8   7   49.30
5.87    8   7  -7   55.58    6.69    8   7  -7   64.02    6.04   -8
-7   7   63.68    6.21    7   7  -7   73.32    6.08    7   7  -7
88.15    7.60   -7  -7   7   70.53    6.23    6   7  -7   61.91
5.46   -6  -7   7   56.27    5.43    5   7  -7   37.65    4.31   -5
-7   7   37.93    4.50    4   7  -7   39.32    4.55    4   7  -7
38.86    3.94    4   7  -7   36.70    4.17   -4  -7   7   29.87
4.37   -4  -7   7   29.70    3.94    3   7  -7   30.57    3.47    3
7  -7   33.20    4.25    3   7  -7   34.51    3.98   -3  -7   7
35.35    4.48   -3  -7   7   32.06    3.96    2   7  -7   34.76
4.43    2   7  -7   24.58    3.46   -2  -7   7   35.35    4.27   -2
-7   7   29.44    3.79    1   7  -7    5.29    1.95    1   7  -7
1.96    2.01   -1  -7   7    4.41    1.80   -1  -7   7    3.93    1.75
0   7  -7   17.37    3.47    0   7  -7   14.35    2.79    0  -7   7
14.98    2.87    0  -7   7   14.02    2.74   -1   7  -7    6.55
2.13   -1   7  -7    6.55    2.31    1  -7   7    3.70    1.68    1
-7   7    6.97    2.03   -2   7  -7    9.24    2.93   -2   7  -7
15.16    2.94    2  -7   7    8.12    2.28   -3   7  -7    4.84
2.62   -3   7  -7    5.62    2.08    3  -7   7    4.29    1.89   -4
7  -7    4.24    2.16   -4   7  -7    7.35    2.84    4  -7   7
5.05    2.20    4  -7   7    7.81    2.36   -5   7  -7   -1.15    1.68
-5   7  -7    2.69    1.94   -5   7  -7   -0.37    1.31    5  -7   7
1.72    1.61    5  -7   7    1.03    1.64   -6   7  -7    5.22    2.32
-6   7  -7    2.17    1.93   -6   7  -7    0.06    2.17    6  -7   7
1.86    1.94    6  -7   7    3.38    1.95   -7   7  -7    7.70    2.66
-7   7  -7   10.42    2.96    7  -7   7   16.38    3.45    7  -7   7
9.42    3.03   -8   7  -7    8.92    3.00   -8   7  -7    5.64    2.82
8  -7   7    7.23    3.08    8  -7   7    5.43    2.63    9   6  -7
23.76    4.21    9   6  -7   31.83    5.75   -9  -6   7   28.88
4.66    8   6  -7   49.85    6.53    8   6  -7   52.62    5.21   -8
-6   7   48.55    5.46    7   6  -7   87.90    7.62    7   6  -7
72.12    5.59   -7  -6   7   76.45    6.35    6   6  -7   78.68
6.90    6   6  -7   69.89    5.24   -6  -6   7   73.95    5.63    5
6  -7   45.59    4.43    5   6  -7   44.46    5.13    5   6  -7
42.41    4.23    5   6  -7   41.86    4.12   -5  -6   7   37.60
4.23   -5  -6   7   38.70    4.93    4   6  -7   52.24    4.50    4
6  -7   47.30    4.52    4   6  -7   52.08    4.32    4   6  -7
49.99    5.10   -4  -6   7   47.39    5.06   -4  -6   7   37.32
4.21    3   6  -7   79.96    5.26    3   6  -7   80.85    5.71    3
6  -7   79.02    4.89   -3  -6   7   83.97    5.46   -3  -6   7
79.97    5.92    2   6  -7  142.23    7.78    2   6  -7  136.16
7.00   -2  -6   7  131.53    7.66   -2  -6   7  140.41    7.32    1
6  -7   20.61    3.40    1   6  -7   28.37    3.34   -1  -6   7
28.50    3.63   -1  -6   7   26.73    3.44    0   6  -7   28.96
3.42    0   6  -7   17.19    3.22    0  -6   7   15.98    2.87    0
-6   7   23.43    3.27   -1   6  -7   38.70    3.85   -1   6  -7
32.50    4.21    1  -6   7   32.62    3.59    1  -6   7   27.02
3.50   -2   6  -7    1.05    1.46   -2   6  -7    4.86    2.21    2
-6   7    3.20    1.80    2  -6   7    2.71    1.42   -3   6  -7
3.02    1.77   -3   6  -7    7.62    2.72    3  -6   7    4.25    1.85
3  -6   7    0.40    1.38   -4   6  -7    2.07    2.02   -4   6  -7
2.72    1.67    4  -6   7    0.93    1.33    4  -6   7    2.99    1.51
-5   6  -7   19.47    4.04   -5   6  -7   21.53    3.56   -5   6  -7
18.44    3.37    5  -6   7   16.37    3.17    5  -6   7   18.74
3.28   -6   6  -7   52.51    5.27   -6   6  -7   45.06    4.72   -6
6  -7   51.66    5.84   -6   6  -7   54.27    5.41    6  -6   7
51.41    5.27    6  -6   7   52.83    5.20   -7   6  -7   29.61
4.29   -7   6  -7   27.58    4.32   -7   6  -7   25.87    4.25    7
-6   7   24.86    4.05    7  -6   7   30.51    4.37   -8   6  -7
27.12    4.50   -8   6  -7   34.30    4.96   -8   6  -7   29.20
4.74    8  -6   7   33.71    4.73    8  -6   7   31.74    4.70    9
5  -7   24.03    5.27    9   5  -7   33.86    4.62   -9  -5   7
26.73    4.50    8   5  -7   12.55    2.89    8   5  -7   18.49
4.47   -8  -5   7    7.94    2.46    7   5  -7   17.92    4.15    7
5  -7   14.84    2.98   -7  -5   7   13.57    2.98    6   5  -7
23.38    3.26    6   5  -7   19.14    4.12   -6  -5   7   20.37
3.75   -6  -5   7   19.32    3.29    5   5  -7    4.97    1.71    5
5  -7    9.65    2.43    5   5  -7    7.76    3.05    5   5  -7
10.44    2.38   -5  -5   7    8.23    2.21   -5  -5   7   10.99
2.83    4   5  -7   35.78    3.56    4   5  -7   36.97    3.81    4
5  -7   43.31    4.88    4   5  -7   31.65    3.40   -4  -5   7
32.42    4.21   -4  -5   7   27.83    3.51    3   5  -7   26.83
3.41    3   5  -7   22.10    2.91    3   5  -7   27.11    3.88    3
5  -7   29.83    3.08   -3  -5   7   28.86    3.51   -3  -5   7
24.09    3.61    2   5  -7    3.56    2.15    2   5  -7    7.31
2.23    2   5  -7    7.69    1.98    2   5  -7    4.93    1.69   -2
-5   7    4.93    1.80   -2  -5   7    5.40    1.77    1   5  -7
19.03    3.11    1   5  -7   22.64    2.80   -1  -5   7   14.37
2.71   -1  -5   7   19.99    2.93    0   5  -7    1.98    1.42    0
5  -7    1.89    1.57    0  -5   7    2.87    1.58    0  -5   7
2.60    1.42   -1   5  -7    3.52    1.62   -1   5  -7    2.31    1.75
1  -5   7    3.56    1.55    1  -5   7   -0.37    1.12   -2   5  -7
6.61    2.00   -2   5  -7   10.54    2.57    2  -5   7   13.36    2.51
2  -5   7   14.88    2.48   -3   5  -7    1.33    1.34   -3   5  -7
0.34    1.48    3  -5   7   -0.12    0.99    3  -5   7   -0.15    1.18
3  -5   7    1.24    1.35   -4   5  -7    0.53    1.77   -4   5  -7
2.95    1.49    4  -5   7    0.87    1.31    4  -5   7    0.81    1.38
-5   5  -7    2.02    1.58   -5   5  -7    1.32    1.85   -5   5  -7
0.21    1.33   -5   5  -7    0.88    1.52    5  -5   7    0.57    1.38
5  -5   7    1.19    1.44    5  -5   7    3.62    1.82   -6   5  -7
6.60    2.19   -6   5  -7    5.65    2.57   -6   5  -7    3.68    1.81
-6   5  -7    4.98    1.92    6  -5   7    3.37    1.71    6  -5   7
3.47    1.85    6  -5   7    2.45    1.76   -7   5  -7   -0.84    1.35
-7   5  -7   -1.20    1.14   -7   5  -7   -1.23    1.28    7  -5   7
-0.62    1.38    7  -5   7    0.53    1.53    7  -5   7   -0.94
1.36   -8   5  -7    1.80    1.90   -8   5  -7    0.36    1.72   -8
5  -7   -0.70    1.49    8  -5   7    1.12    1.67    8  -5   7
-0.92    1.69    8  -5   7    2.09    1.68   -9   5  -7   -0.40
1.69   -9   5  -7    0.87    2.05   -9   5  -7   -0.61    1.96    9
-5   7    0.40    1.81    9  -5   7   -0.38    1.99    9  -5   7
-2.33    1.68    9   4  -7   18.04    3.59    9   4  -7   31.49
5.90   -9  -4   7   23.20    4.18    8   4  -7   17.85    3.34    8
4  -7   21.23    4.89   -8  -4   7   22.28    3.80    7   4  -7
57.32    4.84    7   4  -7   50.72    6.31   -7  -4   7   64.75
5.49    6   4  -7  170.71    8.01    6   4  -7  169.06   10.12   -6
-4   7  162.23    9.19   -6  -4   7  155.82    8.31    5   4  -7
150.86    9.14    5   4  -7  148.27    7.15    5   4  -7  145.78
7.04    5   4  -7  121.22    6.82   -5  -4   7  143.16    7.57   -5
-4   7  163.96    8.68    4   4  -7  110.39    5.84    4   4  -7
112.87    7.53    4   4  -7  110.83    6.17    4   4  -7  113.19
5.80   -4  -4   7  114.73    7.01   -4  -4   7  107.50    6.20    3
4  -7  174.11    7.63    3   4  -7  189.40    8.45    3   4  -7
182.28    9.23    3   4  -7  184.68    7.39   -3  -4   7  173.37
8.88   -3  -4   7  177.43    8.14    2   4  -7  122.13    6.97    2
4  -7  132.85    6.82    2   4  -7  125.42    6.02    2   4  -7
132.69    5.54   -2  -4   7  118.59    6.85   -2  -4   7  121.42
6.43    1   4  -7  156.53    7.23    1   4  -7  146.19    6.59    1
4  -7  142.67    7.22   -1  -4   7  143.80    7.48   -1  -4   7
144.85    7.00    0   4  -7  195.18    8.09    0   4  -7  208.77
9.11    0   4  -7  207.47    8.41    0  -4   7  192.87    8.49    0
-4   7  197.47    9.05   -1   4  -7  180.93    8.01   -1   4  -7
210.31    8.04   -1   4  -7  202.26    9.12    1  -4   7  204.41
8.64    1  -4   7  186.82    8.67   -2   4  -7  131.55    7.12   -2
4  -7  121.34    6.24    2  -4   7  131.38    6.65    2  -4   7
133.01    6.33    2  -4   7  119.60    6.41   -3   4  -7   30.39
3.25   -3   4  -7   21.33    3.30    3  -4   7   27.42    3.09    3
-4   7   27.06    3.04    3  -4   7   23.36    3.10   -4   4  -7
3.62    1.90   -4   4  -7    1.76    1.40   -4   4  -7    4.04    1.50
4  -4   7    0.12    1.09    4  -4   7    1.97    1.44    4  -4   7
2.45    1.49    4  -4   7    2.35    1.31   -5   4  -7    3.11    1.70
-5   4  -7    4.05    1.94   -5   4  -7    3.57    1.66   -5   4  -7
3.32    1.49    5  -4   7    3.25    1.60    5  -4   7    4.50    1.71
5  -4   7    1.32    1.34   -6   4  -7   -0.67    1.66   -6   4  -7
-0.40    1.22   -6   4  -7   -0.60    1.13   -6   4  -7   -0.87
1.10    6  -4   7    0.38    1.30    6  -4   7    0.55    1.29    6
-4   7   -0.51    1.09   -7   4  -7   -0.41    1.30   -7   4  -7
0.30    1.39   -7   4  -7   -0.46    1.23    7  -4   7    0.74    1.49
7  -4   7   -0.66    1.34    7  -4   7    0.26    1.40   -8   4  -7
7.07    2.52   -8   4  -7    4.79    2.21   -8   4  -7    8.02    2.54
8  -4   7   14.49    3.04    8  -4   7    9.54    2.71    8  -4   7
8.60    2.73   -9   4  -7   34.80    4.73   -9   4  -7   25.24    4.32
-9   4  -7   29.19    4.64    9  -4   7   29.65    4.69    9  -4   7
27.14    4.34    9   3  -7   -0.02    2.84   -9  -3   7    1.35
1.67    8   3  -7    1.05    1.46    8   3  -7   -0.72    2.39   -8
-3   7   -2.10    1.11    7   3  -7    1.63    1.52    7   3  -7
-2.37    1.84   -7  -3   7    2.13    1.81   -7  -3   7    0.20
1.30    6   3  -7    1.18    1.72    6   3  -7    2.28    1.51    6
3  -7    2.95    2.80   -6  -3   7    3.46    1.57   -6  -3   7
5.75    2.19    5   3  -7    0.91    2.19    5   3  -7    1.19    1.56
5   3  -7    0.71    1.17   -5  -3   7    0.52    1.26   -5  -3   7
0.26    1.12    4   3  -7    5.14    1.59    4   3  -7    5.86    1.93
4   3  -7    6.06    2.64   -4  -3   7    3.83    1.67   -4  -3   7
5.54    1.92    3   3  -7    4.79    1.64    3   3  -7    5.31    1.44
3   3  -7    7.02    2.63   -3  -3   7    6.68    1.82   -3  -3   7
2.97    1.54    2   3  -7    1.82    1.12    2   3  -7    2.49    1.21
2   3  -7   -0.04    1.73   -2  -3   7    2.26    1.35   -2  -3   7
2.73    1.41    1   3  -7   24.06    2.43    1   3  -7   22.25    2.89
-1  -3   7   22.76    2.73   -1  -3   7   19.43    2.86    0   3  -7
20.39    2.56    0   3  -7   20.66    2.34    0  -3   7   21.82
2.91    0  -3   7   22.82    2.73   -1   3  -7   22.23    2.47   -1
3  -7   19.04    2.35   -1   3  -7   22.38    2.97    1  -3   7
19.61    2.68    1  -3   7   19.78    2.69   -2   3  -7    0.79
1.14   -2   3  -7   -0.07    1.10   -2   3  -7    2.58    1.23    2
-3   7    0.96    1.04    2  -3   7    0.49    1.01    2  -3   7
0.97    1.13    2  -3   7    3.62    1.51   -3   3  -7   22.52    2.55
-3   3  -7   19.41    2.55   -3   3  -7   21.74    2.31   -3   3  -7
20.49    2.97    3  -3   7   23.18    2.83    3  -3   7   17.50
2.58    3  -3   7   16.31    2.36    3  -3   7   20.91    2.51    3
-3   7   25.71    2.42   -4   3  -7   23.28    2.67   -4   3  -7
21.77    2.58   -4   3  -7   22.77    3.22   -4   3  -7   21.53
2.77   -4   3  -7   18.69    2.65    4  -3   7   26.85    2.97    4
-3   7   17.98    2.48    4  -3   7   21.88    2.76    4  -3   7
17.65    2.34    4  -3   7   26.79    3.13   -5   3  -7    5.24
2.01   -5   3  -7    9.35    2.03   -5   3  -7   10.30    2.25   -5
3  -7    9.80    2.11   -5   3  -7   11.27    2.38    5  -3   7
8.99    2.12    5  -3   7    8.81    1.95    5  -3   7    7.66    2.05
-6   3  -7    1.27    1.32   -6   3  -7    0.21    1.30   -6   3  -7
1.28    1.47   -6   3  -7    0.88    1.40    6  -3   7   -0.34    1.17
6  -3   7    1.16    1.42    6  -3   7    1.37    1.39   -7   3  -7
-0.46    1.23   -7   3  -7    0.26    1.38   -7   3  -7    0.79
1.34    7  -3   7    0.91    1.47    7  -3   7   -0.95    1.26    7
-3   7   -0.46    1.22   -8   3  -7   -0.38    1.52   -8   3  -7
1.98    1.72   -8   3  -7   -1.02    1.24    8  -3   7    1.80    1.75
8  -3   7    0.11    1.54    8  -3   7   -0.23    1.52   -9   3  -7
1.86    1.99   -9   3  -7    4.60    2.25   -9   3  -7    4.69    2.40
9  -3   7    0.87    1.95    9  -3   7    3.66    2.27  -10   3  -7
0.46    1.75  -10   3  -7    5.87    2.72  -10   3  -7    2.66    2.41
10  -3   7   -1.59    1.73   10  -3   7   -1.63    1.78   10   2  -7
1.29    3.13  -10  -2   7    1.00    1.91    9   2  -7    0.90    2.82
-9  -2   7    2.46    2.15    8   2  -7    1.58    2.59   -8  -2   7
6.11    2.36   -8  -2   7    2.21    1.80    7   2  -7   13.59    3.96
7   2  -7   11.74    2.79    7   2  -7   14.26    2.60   -7  -2   7
13.39    1.85   -7  -2   7   10.12    2.67   -7  -2   7   11.86
2.84    6   2  -7   32.37    3.57    6   2  -7   23.14    4.56    6
2  -7   31.22    3.31   -6  -2   7   36.96    2.34   -6  -2   7
35.80    3.96   -6  -2   7   34.64    4.15    5   2  -7  157.80
6.95    5   2  -7  158.99    9.50    5   2  -7  159.82    7.34   -5
-2   7  151.16    7.66   -5  -2   7  166.16    8.38    4   2  -7
145.31    8.87    4   2  -7  159.87    6.87    4   2  -7  157.37
6.56   -4  -2   7  156.02    7.33   -4  -2   7  157.51    8.02    3
2  -7  168.49    8.62    3   2  -7  162.14    6.47    3   2  -7
167.27    6.58   -3  -2   7  148.14    7.78   -3  -2   7  164.49
7.34    2   2  -7  257.46   10.92    2   2  -7  271.60    8.65    2
2  -7  288.22    9.26   -2  -2   7  254.69    9.89   -2  -2   7
253.02   10.80    1   2  -7  182.58    6.78    1   2  -7  185.93
8.27   -1  -2   7  186.93    7.69   -1  -2   7  179.87    8.34    0
2  -7   88.86    4.96    0   2  -7   91.18    4.25    0  -2   7
90.49    4.76    0  -2   7   73.00    4.89   -1   2  -7  126.24
5.55   -1   2  -7  135.09    6.27    1  -2   7  133.22    6.22    1
-2   7  139.37    6.16    1  -2   7  119.83    6.37   -2   2  -7
175.25    7.10   -2   2  -7  178.20    6.50   -2   2  -7  178.90
7.69    2  -2   7  178.83    7.95    2  -2   7  153.27    7.27    2
-2   7  197.40    7.24    2  -2   7  172.88    7.41    2  -2   7
199.47    6.71   -3   2  -7  204.99    8.95   -3   2  -7  213.32
8.65   -3   2  -7  201.02    8.04   -3   2  -7  211.82    7.81    3
-2   7  214.12    7.82    3  -2   7  203.14    8.84    3  -2   7
209.00    8.07    3  -2   7  202.61    8.36   -4   2  -7  131.23
6.31   -4   2  -7  142.58    7.00   -4   2  -7  145.32    6.63   -4
2  -7  150.61    7.01   -4   2  -7  147.79    7.15    4  -2   7
152.41    6.69    4  -2   7  151.79    6.53    4  -2   7  137.57
6.87    4  -2   7  145.36    6.72   -5   2  -7   31.28    3.43   -5
2  -7   27.62    3.03   -5   2  -7   24.42    3.06   -5   2  -7
28.24    3.12   -5   2  -7   30.64    3.30   -5   2  -7   30.45
3.30    5  -2   7   27.15    3.12    5  -2   7   30.39    3.12    5
-2   7   24.01    2.88    5  -2   7   25.87    3.07   -6   2  -7
32.38    3.55   -6   2  -7   41.26    3.99   -6   2  -7   41.31
3.96   -6   2  -7   43.92    3.96    6  -2   7   41.02    3.90    6
-2   7   35.49    3.59    6  -2   7   39.15    3.85    6  -2   7
41.97    3.86   -7   2  -7   12.23    2.58   -7   2  -7    9.55
2.47   -7   2  -7   11.53    2.49    7  -2   7   13.17    2.82    7
-2   7   17.45    2.96    7  -2   7    8.48    2.40    7  -2   7
12.58    2.64   -8   2  -7    8.82    2.55   -8   2  -7    3.61
1.94   -8   2  -7    5.54    2.11    8  -2   7    2.83    1.78    8
-2   7    4.54    2.01    8  -2   7    3.93    1.99   -9   2  -7
0.37    1.68   -9   2  -7   -0.29    1.49   -9   2  -7    3.85    1.97
9  -2   7    3.27    1.87    9  -2   7    3.43    2.26  -10   2  -7
3.13    2.13  -10   2  -7    1.19    2.09  -10   2  -7    1.47    2.00
10  -2   7   -0.26    2.00   10  -2   7    1.02    1.89   10   1  -7
1.19    3.09  -10  -1   7    7.50    2.84    9   1  -7    0.93    2.71
-9  -1   7   -0.19    1.49    8   1  -7    2.71    2.89   -8  -1   7
2.04    1.81    7   1  -7   -0.75    2.09    7   1  -7    0.23    1.60
-7  -1   7    0.78    1.37   -7  -1   7    1.07    1.43   -7  -1   7
-0.74    0.85    6   1  -7    1.48    1.59    6   1  -7   -0.90
2.21   -6  -1   7   -0.53    1.07   -6  -1   7    0.05    0.76   -6
-1   7    0.27    1.27    5   1  -7   10.23    1.94    5   1  -7
5.34    2.69    5   1  -7    4.96    1.93   -5  -1   7    4.36    1.63
-5  -1   7   10.17    2.36    4   1  -7    8.32    2.95    4   1  -7
2.30    1.58    4   1  -7    3.42    1.27   -4  -1   7    2.05    1.26
-4  -1   7    3.06    1.52    3   1  -7   80.03    3.80    3   1  -7
70.99    5.56    3   1  -7   76.50    4.02   -3  -1   7   68.75
4.31   -3  -1   7   68.62    4.76    2   1  -7   74.23    3.60    2
1  -7   76.82    5.27    2   1  -7   82.57    3.82   -2  -1   7
81.90    4.50   -2  -1   7   82.67    5.10    1   1  -7   41.04
3.70    1   1  -7   38.93    2.20    1   1  -7   38.71    2.36   -1
-1   7   36.67    3.46   -1  -1   7   36.03    2.98    0   1  -7
34.51    2.22    0   1  -7   37.76    3.38    0  -1   7   34.45
2.89    0  -1   7   27.63    3.04   -1   1  -7   56.52    3.89   -1
1  -7   60.23    3.21    1  -1   7   68.91    3.93    1  -1   7
56.11    4.01    1  -1   7   65.21    4.13    1  -1   7   62.05
2.91   -2   1  -7   76.91    3.90   -2   1  -7   77.92    4.64    2
-1   7   71.48    4.09    2  -1   7   81.43    3.74    2  -1   7
67.41    4.45    2  -1   7   86.36    3.99    2  -1   7   76.47
4.69   -3   1  -7  149.38    6.91   -3   1  -7  143.21    6.99   -3
1  -7  147.78    6.11    3  -1   7  146.87    6.02    3  -1   7
136.37    6.78    3  -1   7  143.21    5.97    3  -1   7  160.41
6.99    3  -1   7  141.71    6.29   -4   1  -7  116.25    6.17   -4
1  -7  109.30    5.42   -4   1  -7  114.49    6.01   -4   1  -7
122.42    6.28    4  -1   7  105.76    5.40    4  -1   7  118.86
6.15    4  -1   7  110.71    6.02    4  -1   7  111.17    5.42    4
-1   7  120.09    5.48   -5   1  -7   73.96    4.50   -5   1  -7
74.71    4.87   -5   1  -7   71.00    4.86   -5   1  -7   68.38
4.52   -5   1  -7   59.71    4.12    5  -1   7   71.66    4.35    5
-1   7   74.62    4.76    5  -1   7   71.98    4.44    5  -1   7
77.73    4.97    5  -1   7   69.59    4.45   -6   1  -7   50.53
3.86   -6   1  -7   48.71    3.69   -6   1  -7   46.35    3.86   -6
1  -7   44.15    4.02    6  -1   7   42.52    3.73    6  -1   7
47.36    4.05    6  -1   7   42.90    4.14    6  -1   7   42.03
3.63    6  -1   7   41.48    3.90   -7   1  -7    7.79    2.24   -7
1  -7    4.55    1.78   -7   1  -7    5.91    1.91    7  -1   7
8.37    2.11    7  -1   7    6.81    2.28    7  -1   7    5.40    2.01
7  -1   7    7.84    2.04   -8   1  -7   18.39    3.04   -8   1  -7
14.88    3.15   -8   1  -7   18.31    3.09    8  -1   7   17.22
3.03    8  -1   7   23.36    3.78    8  -1   7   17.10    3.25   -9
1  -7    0.15    1.47   -9   1  -7    0.96    1.59   -9   1  -7
1.08    1.59    9  -1   7   -0.61    1.56    9  -1   7    1.60    1.72
9  -1   7   -0.47    1.45  -10   1  -7    2.15    2.14  -10   1  -7
1.01    1.83   10  -1   7   -2.01    1.59   10  -1   7    0.85    1.83
10  -1   7    2.34    2.30   10   0  -7   11.19    4.46  -10   0   7
24.51    4.40    9   0  -7    7.57    3.71   -9   0   7    8.73
2.77    8   0  -7    1.12    2.79   -8   0   7    6.51    2.33    7
0  -7    0.90    2.58    7   0  -7    3.03    2.01   -7   0   7
1.22    1.01   -7   0   7    5.94    2.13    6   0  -7    7.94    2.16
6   0  -7    8.93    3.30   -6   0   7    3.86    1.78   -6   0   7
3.29    1.67   -6   0   7    5.43    1.21    5   0  -7   14.12    2.42
5   0  -7   10.25    3.23   -5   0   7   11.19    2.28   -5   0   7
11.96    1.39   -5   0   7    8.42    2.10    4   0  -7   28.29
4.21    4   0  -7   36.54    3.19   -4   0   7   34.51    1.81   -4
0   7   36.00    3.61   -4   0   7   30.82    3.22    3   0  -7
28.27    3.80    3   0  -7   23.45    2.36   -3   0   7   28.68
2.85   -3   0   7   22.20    2.88    2   0  -7   79.20    3.88    2
0  -7   91.63    5.73   -2   0   7   81.33    5.01   -2   0   7
84.94    4.48    1   0  -7  186.64    6.02    1   0  -7  176.39
8.10   -1   0   7  181.24    7.10   -1   0   7  171.56    7.88    0
0  -7  132.51    4.62    0   0  -7  126.98    6.45    0   0   7
148.72    5.02    0   0   7  131.95    6.52    0   0   7  128.27
6.41   -1   0  -7   61.43    4.12   -1   0  -7   60.07    2.86    1
0   7   58.07    3.99    1   0   7   63.05    3.03    1   0   7
53.83    3.91    1   0   7   58.74    3.44   -2   0  -7   59.75
4.08   -2   0  -7   61.24    3.10    2   0   7   60.29    3.60    2
0   7   59.71    4.12    2   0   7   61.37    4.17    2   0   7
60.39    3.26    2   0   7   68.45    3.17   -3   0  -7   77.56
4.83   -3   0  -7   78.56    3.86   -3   0  -7   73.41    4.67    3
0   7   73.52    4.64    3   0   7   74.77    3.76    3   0   7
88.49    4.22    3   0   7   79.06    4.80    3   0   7   73.69
4.05   -4   0  -7  174.74    7.11   -4   0  -7  184.42    8.35   -4
0  -7  176.64    6.97   -4   0  -7  173.99    8.13    4   0   7
169.56    6.90    4   0   7  161.56    7.85    4   0   7  188.61
7.06    4   0   7  170.56    8.05    4   0   7  188.22    7.49   -5
0  -7  158.87    8.00   -5   0  -7  163.51    6.84   -5   0  -7
150.60    6.74   -5   0  -7  164.65    7.92    5   0   7  158.61
6.71    5   0   7  166.97    7.38    5   0   7  158.99    7.91    5
0   7  165.44    6.86    5   0   7  155.42    7.70   -6   0  -7
69.55    4.28   -6   0  -7   61.87    4.70   -6   0  -7   69.51
4.38   -6   0  -7   64.38    4.21    6   0   7   62.37    4.21    6
0   7   65.03    4.54    6   0   7   64.09    4.93    6   0   7
75.24    4.38   -7   0  -7   43.36    4.40   -7   0  -7   50.37
4.05    7   0   7   51.62    4.20    7   0   7   46.67    4.71    7
0   7   41.90    4.22    8   0   7   19.39    3.45    8   0   7
26.06    3.92    8   0   7   18.60    3.10   -9   0  -7    4.50
2.10    9   0   7    8.52    2.73    9   0   7    7.21    2.37    9
0   7    7.41    2.51  -10   0  -7    3.86    2.32   10   0   7
5.21    2.40   10   0   7    5.23    2.47   10   0   7    6.66    2.32
-11   0  -7    2.19    2.32   11   0   7    2.17    2.39   11   0   7
-0.31    2.01   11   0   7    0.20    1.95    9  -1  -7   12.96
4.24   -9   1   7    6.42    2.59    8  -1  -7   21.76    4.95   -8
1   7   17.76    3.43    7  -1  -7   34.49    3.60    7  -1  -7
30.36    5.41   -7   1   7   38.70    4.35   -7   1   7   31.49
2.75    6  -1  -7   22.86    3.11    6  -1  -7   23.92    4.71   -6
1   7   22.03    2.13   -6   1   7   23.24    3.33   -6   1   7
24.13    3.21    5  -1  -7   -0.69    1.23    5  -1  -7    3.38
2.62   -5   1   7    0.71    1.08   -5   1   7    0.99    1.10   -5
1   7   -0.04    0.66    4  -1  -7   20.56    2.58    4  -1  -7
21.16    3.82   -4   1   7   28.26    3.17   -4   1   7   20.49
2.69    3  -1  -7   17.35    2.08    3  -1  -7   17.09    3.31   -3
1   7   22.57    2.86   -3   1   7   17.69    2.36    2  -1  -7
69.33    3.52    2  -1  -7   56.88    4.58   -2   1   7   57.52
3.54   -2   1   7   55.65    3.99    1  -1  -7   48.51    2.59    1
-1  -7   39.55    3.74   -1   1   7   43.09    3.43   -1   1   7
42.22    2.51    0  -1  -7   60.82    4.23    0  -1  -7   61.85
2.47    0   1   7   59.64    3.34    0   1   7   65.55    4.30    0
1   7   57.11    3.02    0   1   7   58.10    3.97   -1  -1  -7
149.17    7.22    1   1   7  149.11    7.13    1   1   7  148.96
7.15    1   1   7  154.93    5.93    1   1   7  165.79    6.05   -2
-1  -7  175.74    7.99   -2  -1  -7  180.63    5.96   -2  -1  -7
166.31    7.92    2   1   7  195.21    6.66    2   1   7  176.26
6.84    2   1   7  187.90    8.08    2   1   7  167.48    7.84   -3
-1  -7  129.45    7.00   -3  -1  -7  154.09    7.33   -3  -1  -7
163.69    5.78    3   1   7  152.67    6.46    3   1   7  152.55
7.27    3   1   7  161.61    5.69    3   1   7  142.85    7.12    3
1   7  158.18    5.93   -4  -1  -7  130.67    6.93   -4  -1  -7
138.01    5.62   -4  -1  -7  136.45    7.11   -4  -1  -7  135.08
5.55    4   1   7  135.84    5.51    4   1   7  139.01    7.05    4
1   7  131.01    6.79    4   1   7  134.92    5.48    4   1   7
129.17    6.20   -5  -1  -7  250.56   10.84   -5  -1  -7  242.29
10.51    5   1   7  235.19    9.70    5   1   7  251.26   10.71    5
1   7  237.17   10.38    5   1   7  264.96    9.15   -6  -1  -7
111.94    6.62    6   1   7  109.26    6.74    6   1   7  111.79
6.29    6   1   7  122.65    5.86   -7  -1  -7  108.67    6.92    7
1   7  124.95    7.44    7   1   7  109.16    6.50    7   1   7
122.16    6.27   -8  -1  -7   87.05    6.22    8   1   7   81.94
5.83    8   1   7   82.34    5.45    8   1   7   81.77    6.21    9
1   7   69.78    6.09    9   1   7   71.51    5.38    9   1   7
98.17    7.01  -10  -1  -7   26.70    4.35   10   1   7   22.92
3.83   10   1   7   23.63    4.15   10   1   7   29.06    4.75  -11
-1  -7    8.72    2.99   11   1   7   13.98    3.93   11   1   7
5.57    2.81   11   1   7   12.20    3.15    9  -2  -7   19.18    5.02
-9   2   7   15.78    3.52    8  -2  -7   -0.55    2.38   -8   2   7
7.50    2.39    7  -2  -7   11.67    2.58    7  -2  -7   17.83    4.48
-7   2   7   14.09    2.96    6  -2  -7   23.89    4.78    6  -2  -7
21.78    2.97   -6   2   7   21.98    2.20   -6   2   7   15.74
2.87    5  -2  -7   20.32    2.73    5  -2  -7   26.44    4.47   -5
2   7   16.62    2.69   -5   2   7   14.60    2.49   -5   2   7
22.60    1.97    4  -2  -7    2.48    2.50    4  -2  -7    5.94
1.66   -4   2   7    6.89    1.11   -4   2   7    5.98    1.71   -4
2   7    5.10    1.61    3  -2  -7   21.25    2.36    3  -2  -7
16.39    3.30   -3   2   7   19.43    1.29   -3   2   7   21.84
2.33   -3   2   7   17.63    2.55   -3   2   7   16.96    2.32    2
-2  -7   -0.11    1.37    2  -2  -7    0.88    1.01   -2   2   7
0.28    0.82   -2   2   7   -1.60    0.68   -2   2   7    0.19    0.54
1  -2  -7    9.16    1.40    1  -2  -7    8.96    2.16   -1   2   7
9.20    1.49   -1   2   7    8.55    1.51   -1   2   7    6.34    1.66
0  -2  -7   24.17    3.02    0  -2  -7   28.50    1.82    0   2   7
30.89    2.32    0   2   7   28.08    3.21    0   2   7   24.99
2.87    0   2   7   29.15    2.22   -1  -2  -7   29.01    3.16   -1
-2  -7   22.29    2.91    1   2   7   32.14    2.42    1   2   7
27.12    3.09    1   2   7   33.47    3.22    1   2   7   28.78
2.06   -2  -2  -7    9.96    2.19   -2  -2  -7    9.83    2.05    2
2   7   10.52    2.15    2   2   7   11.83    2.17    2   2   7
8.80    1.66   -3  -2  -7   47.98    3.87   -3  -2  -7   39.24    3.76
3   2   7   46.44    3.94    3   2   7   49.70    3.38    3   2   7
46.64    3.76   -4  -2  -7   31.08    3.49   -4  -2  -7   28.31
3.43    4   2   7   33.54    3.51    4   2   7   34.64    3.13    4
2   7   23.33    3.17    4   2   7   33.78    2.41   -5  -2  -7
24.34    3.33   -5  -2  -7   20.82    3.21    5   2   7   27.60
2.52    5   2   7   21.94    3.09    5   2   7   30.19    3.14    5
2   7   23.83    3.31   -6  -2  -7   22.02    3.35    6   2   7
23.79    2.65    6   2   7   19.85    2.94    6   2   7   22.48
3.47   -7  -2  -7    9.50    2.65    7   2   7    6.94    2.37    7
2   7    8.82    2.03    7   2   7    8.68    2.36   -8  -2  -7
2.49    2.09    8   2   7    9.36    2.47    8   2   7    8.22    2.50
8   2   7    5.94    1.93    9   2   7   -0.26    1.43    9   2   7
5.97    2.35    9   2   7    4.04    1.97   10   2   7    3.00    2.35
10   2   7    4.62    2.31   10   2   7    4.15    2.06  -11  -2  -7
1.93    2.13   11   2   7    0.25    2.12   11   2   7    0.93    2.02
11   2   7   -0.66    1.93    9  -3  -7   66.25    8.07   -9   3   7
68.30    6.58    8  -3  -7   39.86    6.36   -8   3   7   47.35
5.25    7  -3  -7   46.82    4.12    7  -3  -7   46.47    6.38   -7
3   7   54.67    5.11    6  -3  -7   30.89    5.34    6  -3  -7
36.92    3.63   -6   3   7   36.34    3.98   -6   3   7   35.78
2.80    5  -3  -7   54.59    4.06    5  -3  -7   63.86    6.46   -5
3   7   57.83    4.44   -5   3   7   62.76    3.31    4  -3  -7
76.80    4.61    4  -3  -7   84.21    6.52   -4   3   7   83.72
4.96   -4   3   7   87.16    3.73   -4   3   7   85.84    5.13   -4
3   7   90.53    5.11    3  -3  -7   13.45    2.95    3  -3  -7
16.07    2.21   -3   3   7   13.81    1.26   -3   3   7   15.63
2.31   -3   3   7   12.83    2.18   -3   3   7   12.46    2.02    2
-3  -7    4.17    2.06    2  -3  -7    9.72    1.73   -2   3   7
8.02    1.85   -2   3   7    7.50    1.68   -2   3   7    6.73    1.51
1  -3  -7    9.95    2.30    1  -3  -7   16.87    1.85   -1   3   7
12.45    1.64   -1   3   7   16.33    2.40   -1   3   7   18.30
2.14    0  -3  -7   35.40    3.49    0  -3  -7   50.76    4.00    0
-3  -7   53.06    2.71    0   3   7   42.53    3.48    0   3   7
45.04    3.98    0   3   7   54.03    3.37   -1  -3  -7   47.72
3.85   -1  -3  -7   45.24    3.64    1   3   7   44.98    3.11    1
3   7   38.95    3.70    1   3   7   44.33    3.52   -2  -3  -7
28.03    3.23   -2  -3  -7   32.80    3.42    2   3   7   28.26
3.16    2   3   7   29.58    2.72    2   3   7   28.49    3.16   -3
-3  -7   19.14    2.83   -3  -3  -7   15.12    2.58    3   3   7
14.69    2.51    3   3   7   13.99    2.45    3   3   7   14.64
2.20   -4  -3  -7   91.40    5.82   -4  -3  -7   87.69    5.63    4
3   7   92.90    5.14    4   3   7   88.98    5.70   -5  -3  -7
164.27    8.22   -5  -3  -7  152.99    8.17    5   3   7  152.37
7.37    5   3   7  143.29    7.88   -6  -3  -7  223.17   10.69    6
3   7  237.01    8.88    6   3   7  212.22   10.52    6   3   7
240.25   10.07   -7  -3  -7  199.48   10.02    7   3   7  173.42
9.64    7   3   7  202.58    8.37    7   3   7  180.20    9.09   -8
-3  -7  141.53    8.81    8   3   7  148.77    7.50    8   3   7
159.70    9.12    8   3   7  144.02    8.13   -9  -3  -7   88.14
7.20    9   3   7   83.09    6.26    9   3   7   97.91    7.28    9
3   7   93.45    6.07   10   3   7   48.84    5.97   10   3   7
39.88    5.17   10   3   7   68.97    5.66   11   3   7   53.21
5.50   11   3   7   50.38    6.37   11   3   7   45.31    5.67    9
-4  -7    3.38    3.63   -9   4   7    5.29    2.74    8  -4  -7
33.85    6.11   -8   4   7   24.16    4.18    7  -4  -7    4.08
3.16   -7   4   7    2.58    1.98    6  -4  -7    7.41    2.17    6
-4  -7    8.56    3.51   -6   4   7    7.48    1.61   -6   4   7
8.50    2.35    5  -4  -7   -0.81    2.06    5  -4  -7    1.24    1.50
-5   4   7    0.48    1.30   -5   4   7    2.50    1.79   -5   4   7
1.97    1.02    4  -4  -7    1.76    2.07    4  -4  -7    0.39    1.23
-4   4   7    1.10    1.27   -4   4   7   -0.13    0.75   -4   4   7
0.66    1.27    3  -4  -7    6.97    2.50    3  -4  -7    3.67    1.49
-3   4   7    3.35    1.55   -3   4   7    2.70    1.23   -3   4   7
4.39    0.97   -3   4   7    4.46    1.49    2  -4  -7    0.34    1.10
2  -4  -7    0.22    1.40    2  -4  -7    5.12    1.64   -2   4   7
5.17    1.34   -2   4   7    6.36    1.69   -2   4   7    2.45    1.21
1  -4  -7   10.61    2.12    1  -4  -7   11.86    2.66    1  -4  -7
12.00    1.78   -1   4   7    9.75    1.89   -1   4   7    6.46
1.65    0  -4  -7   -0.19    1.07    0  -4  -7   -0.17    0.74    0
-4  -7    0.21    1.09    0   4   7    0.29    0.96    0   4   7
-1.26    0.61    0   4   7   -0.16    1.17   -1  -4  -7    0.86
1.21   -1  -4  -7    0.74    0.73   -1  -4  -7    0.62    1.18    1
4   7    0.27    0.99    1   4   7    0.50    0.93    1   4   7
0.87    1.27   -2  -4  -7   -1.06    0.92   -2  -4  -7   -0.04    1.15
2   4   7    1.09    1.26    2   4   7   -0.56    0.88    2   4   7
0.68    0.92   -3  -4  -7    6.13    1.91   -3  -4  -7    6.68    1.93
3   4   7    8.21    2.00    3   4   7    3.77    1.57    3   4   7
5.42    1.52   -4  -4  -7    0.37    1.24   -4  -4  -7   -1.48    0.93
4   4   7   -1.09    0.78    4   4   7   -0.28    1.12   -5  -4  -7
9.11    2.42   -5  -4  -7    9.60    2.45    5   4   7   10.43    2.21
5   4   7   11.69    2.61   -6  -4  -7   15.80    3.17    6   4   7
13.34    2.96    6   4   7   13.29    2.59   -7  -4  -7    5.78
2.42    7   4   7    3.85    1.81    7   4   7    6.40    2.45   -8
-4  -7    3.96    2.47    8   4   7    8.41    2.83    8   4   7
8.59    2.42    9   4   7   -0.16    1.67    9   4   7   -1.04    1.51
9   4   7    2.49    1.71   10   4   7    2.31    1.81   10   4   7
1.85    1.97   10   4   7   -1.92    1.51   11   4   7    3.88    2.59
11   4   7    1.20    2.03   11   4   7    0.60    1.95   -8   5   7
117.46    7.84    7  -5  -7   72.35    7.72   -7   5   7   82.06
6.03    6  -5  -7  106.03    5.76    6  -5  -7   89.72    8.07   -6
5   7   97.91    7.02   -6   5   7   94.73    6.20    5  -5  -7
82.97    7.50    5  -5  -7   85.62    5.20   -5   5   7   84.96
6.15   -5   5   7   87.17    4.40   -5   5   7   94.01    5.67    4
-5  -7   91.40    5.11    4  -5  -7   85.72    6.71   -4   5   7
90.34    4.17   -4   5   7   91.08    5.97    3  -5  -7   78.18
4.59    3  -5  -7   88.79    6.36   -3   5   7   79.94    5.33   -3
5   7   85.67    3.68    2  -5  -7   72.50    4.24    2  -5  -7
74.78    5.55    2  -5  -7   80.95    4.86   -2   5   7   77.52
5.03   -2   5   7   70.56    4.57    1  -5  -7   53.26    4.03    1
-5  -7   52.19    3.37    1  -5  -7   54.45    4.68   -1   5   7
43.63    3.81   -1   5   7   55.02    3.97    0  -5  -7   36.69
3.79    0  -5  -7   28.84    3.24    0  -5  -7   30.36    2.53    0
5   7   27.60    3.09    0   5   7   28.98    3.10    0   5   7
31.45    3.65   -1  -5  -7    0.60    1.33   -1  -5  -7   -0.59
0.65   -1  -5  -7   -0.31    1.05    1   5   7   -0.25    0.90    1
5   7   -0.59    1.17    1   5   7    0.17    1.01   -2  -5  -7
6.45    1.18   -2  -5  -7    5.81    1.93   -2  -5  -7    6.62    2.00
2   5   7    8.45    1.95    2   5   7    7.16    2.11    2   5   7
5.26    1.71   -3  -5  -7   12.90    2.53   -3  -5  -7   10.55    2.46
3   5   7    8.99    2.25    3   5   7   11.16    2.20   -4  -5  -7
31.34    3.74   -4  -5  -7   33.19    3.90    4   5   7   25.92
3.20    4   5   7   33.94    3.81   -5  -5  -7   29.05    3.93   -5
-5  -7   36.26    4.29    5   5   7   29.26    3.49    5   5   7
25.30    3.66   -6  -5  -7   27.93    4.08    6   5   7   36.64
3.98    6   5   7   33.83    4.16   -7  -5  -7   51.74    5.55    7
5   7   60.85    5.64    7   5   7   55.53    5.08   -8  -5  -7
79.20    7.18    8   5   7   83.94    6.16    8   5   7   87.73
6.82    9   5   7   62.76    6.48    9   5   7   71.10    6.22   10
5   7  117.07    8.02   10   5   7  115.08    8.61    8  -6  -7
7.81    4.22   -8   6   7    0.01    1.90    7  -6  -7   -2.61    2.57
-7   6   7    1.31    2.24   -7   6   7    0.47    1.68    6  -6  -7
17.01    4.22   -6   6   7   10.25    2.70   -6   6   7    4.68
2.46    5  -6  -7    7.87    3.28    5  -6  -7    0.75    1.67   -5
6   7   -0.83    1.51   -5   6   7    3.33    1.26    4  -6  -7
6.91    2.83    4  -6  -7    6.09    1.93   -4   6   7    6.38    2.20
-4   6   7    8.48    1.56    3  -6  -7    7.93    1.99    3  -6  -7
8.26    2.59   -3   6   7    7.25    2.17   -3   6   7    9.32    1.46
2  -6  -7    0.37    1.53    2  -6  -7    1.43    1.28   -2   6   7
1.99    0.69   -2   6   7    2.83    1.38   -2   6   7    2.57    1.55
1  -6  -7    1.38    1.26    1  -6  -7   -1.42    1.24    1  -6  -7
0.68    1.07   -1   6   7   -0.72    0.92   -1   6   7    0.05    1.01
0  -6  -7   14.24    2.56    0  -6  -7   18.78    2.18    0  -6  -7
13.71    2.78    0   6   7   16.76    2.68    0   6   7    9.86
2.22    0   6   7   14.14    2.79   -1  -6  -7   -0.14    0.81   -1
-6  -7    1.24    1.36   -1  -6  -7    0.51    1.31    1   6   7
0.59    1.09    1   6   7    1.77    1.53    1   6   7    2.02    1.35
-2  -6  -7    2.73    1.57   -2  -6  -7    4.06    1.16   -2  -6  -7
1.15    1.43    2   6   7    1.46    1.22    2   6   7    3.72    1.71
-3  -6  -7    3.53    1.77   -3  -6  -7    3.19    1.75    3   6   7
6.80    2.10    3   6   7    6.14    1.87   -4  -6  -7   17.21    3.07
-4  -6  -7   13.59    2.95    4   6   7   18.10    2.89    4   6   7
9.94    2.44   -5  -6  -7   14.87    3.05   -5  -6  -7   17.75    3.35
5   6   7   13.40    2.66    5   6   7   20.01    3.39   -6  -6  -7
2.07    1.87   -6  -6  -7    3.98    1.87    6   6   7    3.28    1.64
6   6   7    2.78    1.62   -7  -6  -7    3.31    2.30    7   6   7
1.10    1.47    7   6   7    1.59    1.67    8   6   7   27.26    4.49
8   6   7   23.59    3.86    9   6   7   46.53    5.45    9   6   7
41.31    5.64   10   6   7   29.76    5.17   10   6   7   28.47
4.64   -7   7   7   81.30    7.61    6  -7  -7   55.76    6.92   -6
7   7   65.01    6.43    5  -7  -7   51.87    6.31   -5   7   7
48.01    5.36    4  -7  -7   91.05    5.36    4  -7  -7   90.72
7.18   -4   7   7   92.11    6.76   -4   7   7  105.60    4.84    3
-7  -7  115.82    7.63   -3   7   7  123.06    7.55   -3   7   7
119.15    5.05    2  -7  -7   97.51    5.28    2  -7  -7   86.19
6.37   -2   7   7   99.93    6.47   -2   7   7  101.15    4.15    1
-7  -7  115.01    6.89    1  -7  -7  101.39    6.03    1  -7  -7
102.38    5.32   -1   7   7  109.86    6.23   -1   7   7  118.49
6.82   -1   7   7  114.75    6.20    0  -7  -7   54.64    4.69    0
-7  -7   49.07    3.43    0  -7  -7   45.98    4.22    0   7   7
38.46    4.10    0   7   7   52.94    3.88    0   7   7   47.98
4.45   -1  -7  -7   33.70    2.81   -1  -7  -7   27.37    3.57   -1
-7  -7   25.60    3.41    1   7   7   27.20    3.57    1   7   7
29.31    3.00    1   7   7   40.08    4.12   -2  -7  -7   12.40
2.52   -2  -7  -7   14.15    1.92   -2  -7  -7    9.26    2.50    2
7   7   14.48    2.14    2   7   7   15.16    2.86    2   7   7
11.16    2.40   -3  -7  -7    0.08    1.18   -3  -7  -7   -0.39
1.45   -3  -7  -7    2.39    1.06    3   7   7   -0.22    1.06    3
7   7    0.86    1.33    3   7   7    1.16    0.92   -4  -7  -7
-0.06    1.43   -4  -7  -7    1.25    1.44    4   7   7    0.72
1.35    4   7   7    0.21    0.77    4   7   7    2.48    1.48   -5
-7  -7   -1.08    1.53   -5  -7  -7   -2.06    0.83    5   7   7
-0.15    1.05    5   7   7   -0.70    1.17   -6  -7  -7    6.57
2.47   -6  -7  -7    5.89    2.55    6   7   7    2.68    1.60    6
7   7    7.81    2.50    7   7   7   10.60    2.94    7   7   7
8.77    2.58    8   7   7    5.97    2.49    8   7   7    4.02    2.14
9   7   7   25.92    4.72    9   7   7   18.84    3.73   10   7   7
7.46    2.90   10   7   7   15.16    3.91   -6   8   7   15.47    3.65
-5   8   7   16.46    3.64   -4   8   7   10.83    2.98    3  -8  -7
60.35    5.86   -3   8   7   51.94    5.50   -3   8   7   48.04
3.20    2  -8  -7   68.13    4.46    2  -8  -7   63.03    5.75   -2
8   7   66.09    5.20   -2   8   7   80.74    5.98    1  -8  -7
87.59    6.08    1  -8  -7   85.19    4.94   -1   8   7   85.89
6.10   -1   8   7   90.13    5.82    0  -8  -7   50.72    4.57    0
-8  -7   36.43    3.22    0  -8  -7   41.09    4.33    0   8   7
45.95    4.16    0   8   7   34.17    4.15    0   8   7   50.49
4.62   -1  -8  -7   31.74    3.99   -1  -8  -7   40.91    4.28   -1
-8  -7   36.75    3.17    1   8   7   32.51    4.09    1   8   7
36.32    3.57    1   8   7   45.78    4.45   -2  -8  -7    1.26
1.10   -2  -8  -7    1.97    1.83   -2  -8  -7   -0.61    1.17    2
8   7    0.26    1.18    2   8   7    2.33    1.58    2   8   7
0.98    1.06   -3  -8  -7   13.94    2.83   -3  -8  -7   11.97    2.95
-3  -8  -7   17.14    2.18    3   8   7   16.77    3.07    3   8   7
13.86    2.18    3   8   7   14.05    2.95   -4  -8  -7   25.94
3.59   -4  -8  -7   22.94    4.04   -4  -8  -7   25.05    2.51    4
8   7   18.10    3.24    4   8   7   21.39    2.41    4   8   7
21.43    3.47   -5  -8  -7   11.66    3.18   -5  -8  -7    9.50
2.52    5   8   7   11.99    2.86    5   8   7   11.99    2.83   -6
-8  -7    0.00    1.34    6   8   7   -0.91    1.55    6   8   7
-0.04    1.32   -7  -8  -7    7.79    2.63    7   8   7    7.18
2.44    7   8   7    6.35    2.48    8   8   7    8.03    2.78    8
8   7    3.27    2.25    9   8   7    6.44    2.61    9   8   7
4.88    2.79   10   8   7   12.21    3.96   -6   9   7   24.84    4.93
-5   9   7   34.74    5.28   -4   9   7   32.41    5.03   -3   9   7
24.41    4.27   -2   9   7   33.30    4.62   -1   9   7   18.80
3.58    0  -9  -7   57.82    4.08    0  -9  -7   69.20    5.35    0
9   7   54.43    5.32   -1  -9  -7   37.57    3.36   -1  -9  -7
36.12    4.13   -1  -9  -7   44.18    4.73    1   9   7   36.83
4.18    1   9   7   40.71    4.75   -2  -9  -7   19.39    2.51   -2
-9  -7   12.17    2.65   -2  -9  -7   12.77    3.13    2   9   7
18.36    3.41    2   9   7   16.48    3.12   -3  -9  -7   11.61
2.12   -3  -9  -7   17.24    3.08   -3  -9  -7   12.63    3.47    3
9   7   18.17    3.29    3   9   7   14.92    2.98   -4  -9  -7
0.46    1.06   -4  -9  -7    1.85    1.50   -4  -9  -7   -1.59    1.68
4   9   7   -0.17    1.23    4   9   7    0.13    1.41   -5  -9  -7
-0.17    1.49   -5  -9  -7    1.54    1.31    5   9   7   -0.33
1.52    5   9   7    1.86    1.68   -6  -9  -7    8.32    2.73    6
9   7    8.11    2.73    6   9   7    4.70    2.20   -7  -9  -7
-0.35    1.62    7   9   7   -0.08    1.50    7   9   7   -0.17
1.42   -8  -9  -7    1.16    1.94    8   9   7   -0.93    1.74    8
9   7    1.04    1.68    9   9   7    0.58    1.82    9   9   7
-1.30    1.62   -5  10   7   22.59    4.71   -4  10   7   36.26
5.57   -3  10   7   61.14    6.49   -2  10   7   56.14    6.02   -1
10   7   45.20    5.39    0  10   7   94.15    6.93    1  10   7
111.99    7.66   -2 -10  -7  114.09    7.83    2  10   7  114.07
7.69    2  10   7  117.48    7.25   -3 -10  -7   93.41    6.23   -3
-10  -7   79.01    7.03    3  10   7   79.38    5.98    3  10   7
68.62    6.33   -4 -10  -7   37.54    4.48    4  10   7   45.07
4.84    4  10   7   36.41    4.83   -5 -10  -7   25.48    4.00    5
10   7   21.54    3.84    5  10   7   27.57    4.42   -6 -10  -7
20.12    3.80    6  10   7   15.29    3.56    6  10   7   18.69
3.79   -7 -10  -7   10.34    3.05    7  10   7    4.75    2.66    7
10   7    5.88    2.60   -8 -10  -7    8.53    3.12    8  10   7
6.68    2.73    8  10   7    3.64    2.65   -3  11   7    2.66    2.41
-2  11   7    1.28    2.17   -1  11   7   16.27    3.83    0  11   7
-1.36    1.50    1  11   7    2.35    1.98    2  11   7    5.18
2.34    3  11   7   -0.07    1.70    4  11   7    2.08    1.85    5
11   7   -0.67    1.55    5  11   7    0.55    1.86   -6 -11  -7
-0.37    1.76    6  11   7   -0.80    1.97    6  11   7    1.68
1.93   -7 -11  -7    3.70    2.29    7  11   7    0.97    1.94    7
11   7    1.62    1.97   -1  12   7   33.09    5.24    0  12   7
63.89    6.78    1  12   7   69.26    7.02    2  12   7   88.65
7.81    3  12   7   48.06    6.02    4  12   7   68.06    6.90    5
12   7   45.79    5.88    3  11  -8   70.14    7.82    3  11  -8
65.10    6.67   -3 -11   8   61.36    6.38    2  11  -8   87.58
8.62    2  11  -8   73.71    7.08   -2 -11   8   75.99    6.89    1
11  -8   38.96    5.40    1  11  -8   43.76    6.66   -1 -11   8
27.84    4.67    0  11  -8   42.22    6.80    0 -11   8   45.58
5.69   -1  11  -8   56.80    6.28   -1  11  -8   46.24    7.23    1
-11   8   40.78    5.49    5  10  -8    2.88    2.40   -5 -10   8
2.31    2.05    4  10  -8   14.89    3.72    4  10  -8   15.47    4.10
-4 -10   8   14.73    3.50    3  10  -8   10.44    3.79    3  10  -8
4.19    2.38   -3 -10   8    4.05    2.18    2  10  -8    5.81    2.57
2  10  -8   16.02    4.21   -2 -10   8    8.19    2.69    1  10  -8
9.96    3.59    1  10  -8    8.60    2.80   -1 -10   8    8.68    2.71
0  10  -8    5.94    2.64    0  10  -8   14.54    3.83    0 -10   8
14.69    3.39   -1  10  -8    8.61    3.59   -1  10  -8    4.48
2.49    1 -10   8    1.26    1.76   -2  10  -8   21.87    4.08   -2
10  -8   20.80    4.95    2 -10   8   13.08    3.41   -3  10  -8
11.91    4.32   -3  10  -8   17.06    3.95    3 -10   8   16.15
3.61   -4  10  -8   14.55    3.85   -4  10  -8   22.55    5.56   -4
10  -8    7.38    2.93    4 -10   8   15.36    3.60    6   9  -8
13.75    3.59   -6  -9   8   15.33    3.45    5   9  -8   51.39
5.52   -5  -9   8   32.66    4.83    4   9  -8   31.64    4.63    4
9  -8   35.92    5.42   -4  -9   8   23.82    4.08    3   9  -8
47.60    5.23    3   9  -8   45.84    5.96   -3  -9   8   39.50
5.03    2   9  -8   67.06    6.00    2   9  -8   60.99    6.78   -2
-9   8   64.61    6.18    1   9  -8   84.77    6.48    1   9  -8
86.92    8.05   -1  -9   8   90.76    6.60    0   9  -8   55.81
6.77    0   9  -8   58.53    5.62    0  -9   8   54.62    5.53   -1
9  -8   64.67    7.19   -1   9  -8   57.81    5.71    1  -9   8
49.19    5.43   -2   9  -8   40.51    5.03   -2   9  -8   41.08
6.07    2  -9   8   40.07    5.03   -3   9  -8   31.59    5.62   -3
9  -8   23.82    4.36    3  -9   8   29.13    4.52   -4   9  -8
38.08    6.16   -4   9  -8   33.88    5.13    4  -9   8   29.69
4.62   -5   9  -8   21.92    4.34   -5   9  -8   20.13    5.14   -5
9  -8   22.38    4.41    5  -9   8   26.76    4.61    7   8  -8
-0.98    1.71   -7  -8   8    2.61    2.26    6   8  -8    1.21
1.95   -6  -8   8    0.03    1.45    5   8  -8   36.08    4.60   -5
-8   8   32.40    4.57    4   8  -8   26.92    4.47    4   8  -8
29.04    4.23   -4  -8   8   32.01    4.41    3   8  -8   20.24
3.31    3   8  -8   19.38    3.54    3   8  -8   32.04    4.75   -3
-8   8   28.26    4.09    2   8  -8   14.56    3.05    2   8  -8
16.56    3.82   -2  -8   8   10.47    2.84    1   8  -8   41.41
4.60    1   8  -8   33.36    5.02   -1  -8   8   39.93    4.73   -1
-8   8   37.11    4.58    0   8  -8   41.85    4.66    0   8  -8
38.33    5.41    0  -8   8   41.03    4.83    0  -8   8   44.42
4.68   -1   8  -8   82.74    7.62   -1   8  -8   88.46    6.28    1
-8   8   76.92    6.33   -2   8  -8   77.23    6.24   -2   8  -8
63.23    6.98    2  -8   8   87.66    6.34   -3   8  -8  101.83
8.22   -3   8  -8  106.95    7.28    3  -8   8  101.81    7.14   -4
8  -8   52.75    5.59   -4   8  -8   35.94    5.72    4  -8   8
62.12    5.84   -5   8  -8   39.38    6.22   -5   8  -8   52.11
5.92   -5   8  -8   54.89    6.00    5  -8   8   55.98    5.92    5
-8   8   44.35    5.43   -6   8  -8    6.87    2.97   -6   8  -8
6.55    3.49   -6   8  -8    7.70    2.90    6  -8   8    4.09    2.63
6  -8   8   12.18    3.28    8   7  -8   -0.86    1.92   -8  -7   8
0.23    1.70    7   7  -8   -1.04    1.50   -7  -7   8    1.38    1.95
6   7  -8   -1.28    1.42   -6  -7   8   -1.24    1.19    5   7  -8
-0.07    1.26   -5  -7   8   -0.39    1.38    4   7  -8    1.40
1.75    4   7  -8    0.40    1.74    4   7  -8    2.01    2.09   -4
-7   8   -0.48    1.19    3   7  -8   12.77    2.78    3   7  -8
7.83    2.57    3   7  -8   10.56    2.54   -3  -7   8    7.98    2.33
2   7  -8   35.73    4.69    2   7  -8   33.82    3.97   -2  -7   8
30.11    4.22   -2  -7   8   29.30    3.92    1   7  -8   37.41
4.86    1   7  -8   39.83    4.27   -1  -7   8   37.84    4.34   -1
-7   8   35.91    4.37    0   7  -8    6.26    2.45    0   7  -8
15.26    2.96    0  -7   8   14.87    2.99    0  -7   8   11.52
2.71   -1   7  -8   18.63    3.77   -1   7  -8   23.34    3.52    1
-7   8   14.49    3.00    1  -7   8   18.31    3.23   -2   7  -8
20.61    3.55   -2   7  -8   26.15    4.42    2  -7   8   28.20
3.94   -3   7  -8   19.52    4.18   -3   7  -8   21.68    3.69    3
-7   8   14.94    3.15   -4   7  -8   13.00    3.18   -4   7  -8
16.72    4.03    4  -7   8   15.12    3.18    4  -7   8   15.04
3.26   -5   7  -8   11.70    3.10   -5   7  -8    7.51    2.63   -5
7  -8   12.59    3.76    5  -7   8   16.28    3.52    5  -7   8
11.91    2.96   -6   7  -8   14.79    3.49   -6   7  -8   14.70
4.07   -6   7  -8   14.22    3.50    6  -7   8    7.53    2.63    6
-7   8   20.78    3.95   -7   7  -8    0.37    1.79   -7   7  -8
11.27    3.37    7  -7   8   12.21    3.32    7  -7   8    3.81
2.56    8   6  -8    3.64    3.43    8   6  -8    5.02    2.47   -8
-6   8    5.45    2.67    7   6  -8    9.63    3.71    7   6  -8
12.82    3.07   -7  -6   8    4.96    2.30    6   6  -8    6.49
3.40    6   6  -8   12.37    2.72   -6  -6   8    6.56    2.39    5
6  -8    5.64    1.97    5   6  -8    7.49    3.13   -5  -6   8
1.67    1.54    4   6  -8    1.41    1.77    4   6  -8   -0.82    1.24
4   6  -8    1.12    1.57   -4  -6   8    0.25    1.29    3   6  -8
5.95    2.15    3   6  -8    6.16    2.11    3   6  -8    6.74    2.14
-3  -6   8    3.53    1.80   -3  -6   8   10.45    2.46    2   6  -8
41.67    4.61    2   6  -8   40.99    4.06   -2  -6   8   46.73
4.48   -2  -6   8   47.99    4.86    1   6  -8   59.76    5.46    1
6  -8   69.73    4.89   -1  -6   8   61.15    5.22   -1  -6   8
62.23    5.39    0   6  -8   91.71    6.55    0   6  -8  101.65
6.07    0  -6   8   91.44    6.27    0  -6   8  110.96    6.55   -1
6  -8   96.29    5.95   -1   6  -8  101.05    6.91    1  -6   8
100.12    6.29    1  -6   8   99.07    6.30   -2   6  -8   85.90
6.55   -2   6  -8   81.55    5.70    2  -6   8   90.72    5.99    2
-6   8   84.01    5.61   -3   6  -8   64.09    5.35   -3   6  -8
58.72    5.92    3  -6   8   62.28    5.32   -4   6  -8  105.52
6.92   -4   6  -8  117.38    8.08    4  -6   8  119.87    7.14    4
-6   8  106.98    6.97   -5   6  -8  191.46   10.83   -5   6  -8
179.53    9.55    5  -6   8  199.28    9.81   -6   6  -8  157.76
9.85   -6   6  -8  142.02    8.68   -6   6  -8  157.95    8.91    6
-6   8  158.66    9.04    6  -6   8  154.04    8.67   -7   6  -8
43.12    5.35   -7   6  -8   46.25    5.43    7  -6   8   50.76
5.54    7  -6   8   46.16    5.29   -8   6  -8   46.15    5.74   -8
6  -8   51.84    5.92    8  -6   8   39.99    5.39    8  -6   8
42.08    5.40    8   5  -8    6.60    3.74   -8  -5   8    4.81
2.30    7   5  -8   13.08    2.91    7   5  -8    6.99    3.48   -7
-5   8    9.26    2.74    6   5  -8    1.40    1.44    6   5  -8
0.35    2.39   -6  -5   8    0.22    1.29    5   5  -8   -0.38    2.23
5   5  -8    6.15    2.39    5   5  -8    0.61    1.46    5   5  -8
0.49    1.41   -5  -5   8    3.37    1.73    4   5  -8    0.05    1.57
4   5  -8    1.11    1.34    4   5  -8    2.17    1.61    4   5  -8
2.51    2.41   -4  -5   8    1.07    1.35   -4  -5   8    2.35    1.75
3   5  -8    2.00    1.62    3   5  -8    5.29    2.54    3   5  -8
0.59    1.52    3   5  -8    2.47    1.57   -3  -5   8    1.36    1.25
-3  -5   8    3.20    1.74    2   5  -8    2.11    1.67    2   5  -8
1.87    1.34   -2  -5   8   -1.02    0.97   -2  -5   8    1.97    1.45
1   5  -8    0.30    1.07    1   5  -8   -1.48    1.10   -1  -5   8
1.61    1.26   -1  -5   8    1.95    1.43    0   5  -8    5.26    1.74
0   5  -8    5.98    2.10    0  -5   8    2.53    1.56    0  -5   8
5.15    1.85   -1   5  -8    5.11    1.85   -1   5  -8    2.08    1.72
1  -5   8    3.17    1.67    1  -5   8    2.57    1.64   -2   5  -8
5.01    2.15   -2   5  -8    5.36    1.93    2  -5   8    4.73    1.89
2  -5   8    7.24    2.10   -3   5  -8    9.35    2.45   -3   5  -8
7.72    2.50    3  -5   8    5.13    1.84    3  -5   8    6.09    2.08
3  -5   8    7.47    2.21   -4   5  -8    0.50    1.43   -4   5  -8
0.76    1.75    4  -5   8    0.38    1.40    4  -5   8    0.81    1.38
-5   5  -8    1.01    1.47   -5   5  -8    4.59    2.31   -5   5  -8
0.09    1.52    5  -5   8    1.26    1.35    5  -5   8   -0.32    1.41
-6   5  -8    7.87    2.51   -6   5  -8    7.07    2.96   -6   5  -8
10.35    2.74    6  -5   8    4.01    1.93    6  -5   8    8.84
2.66   -7   5  -8    1.04    1.72   -7   5  -8    0.15    1.44    7
-5   8    1.90    1.89    7  -5   8   -1.23    1.11   -8   5  -8
1.26    2.07   -8   5  -8   -0.86    1.78   -8   5  -8    2.02    1.93
8  -5   8    0.43    1.68    8  -5   8   -0.99    1.64    9   4  -8
40.78    6.90   -9  -4   8   46.59    5.70    8   4  -8   92.60
8.70   -8  -4   8   82.32    6.88    7   4  -8   69.37    7.55   -7
-4   8   76.20    6.33    6   4  -8   85.70    5.50    6   4  -8
75.20    7.35   -6  -4   8   78.52    5.81    5   4  -8   53.49
4.62    5   4  -8   53.10    6.05    5   4  -8   49.71    4.16    5
4  -8   46.12    4.27   -5  -4   8   53.78    5.40   -5  -4   8
60.43    5.17    4   4  -8   30.26    4.56    4   4  -8   16.97
2.82    4   4  -8   19.59    3.10    4   4  -8   25.31    2.94   -4
-4   8   25.35    3.41   -4  -4   8   26.98    3.93    3   4  -8
19.19    3.08    3   4  -8   20.85    2.67    3   4  -8   18.59
2.61    3   4  -8   18.09    3.59   -3  -4   8   17.54    2.92   -3
-4   8   20.95    3.46    2   4  -8   11.65    2.92    2   4  -8
7.00    2.17    2   4  -8    6.65    1.72   -2  -4   8    6.72    1.99
-2  -4   8    1.95    1.49    1   4  -8    4.64    1.56    1   4  -8
6.67    2.03    1   4  -8    1.87    1.57   -1  -4   8    0.44    1.19
-1  -4   8    1.63    1.43    0   4  -8    5.06    1.66    0   4  -8
7.31    2.10    0   4  -8    9.84    2.45    0  -4   8    6.01    1.94
0  -4   8    7.21    1.98   -1   4  -8   34.79    3.33   -1   4  -8
31.37    3.86    1  -4   8   32.71    3.63    1  -4   8   33.41
3.66   -2   4  -8   70.02    4.65   -2   4  -8   75.43    5.43    2
-4   8   72.72    4.95    2  -4   8   69.64    4.92   -3   4  -8
23.27    3.56   -3   4  -8   35.61    3.61    3  -4   8   29.76
3.55    3  -4   8   30.77    3.46    3  -4   8   32.11    3.44   -4
4  -8   99.04    5.96   -4   4  -8  109.16    6.88    4  -4   8
100.44    5.97    4  -4   8   94.50    5.78    4  -4   8  103.00
6.20   -5   4  -8  100.28    6.91   -5   4  -8  104.72    6.54   -5
4  -8  100.56    6.21    5  -4   8   99.82    6.14    5  -4   8
117.78    6.72   -6   4  -8  100.35    6.96   -6   4  -8   98.40
6.33   -6   4  -8   90.98    6.25   -6   4  -8   98.87    6.01    6
-4   8   90.26    6.21    6  -4   8   88.51    6.00   -7   4  -8
86.02    6.10   -7   4  -8   89.56    6.36   -7   4  -8   79.74
6.05    7  -4   8   87.80    6.31    7  -4   8  103.27    6.56    7
-4   8   91.16    6.24   -8   4  -8   84.35    6.46   -8   4  -8
80.63    6.63   -8   4  -8   89.56    6.58    8  -4   8   89.56
6.50    8  -4   8   91.28    6.65    8  -4   8   83.57    6.67   -9
4  -8  101.82    7.37   -9   4  -8  116.20    7.75   -9   4  -8
103.30    7.67    9  -4   8  110.10    7.42    9  -4   8   85.66
7.17    9  -4   8  100.15    7.52    9   3  -8   -0.36    2.64   -9
-3   8    5.13    2.33    8   3  -8   -1.31    2.27   -8  -3   8
1.26    1.87    7   3  -8   -0.12    2.28   -7  -3   8   -1.92    1.32
6   3  -8    2.45    2.60   -6  -3   8   -0.08    1.41   -6  -3   8
-0.03    1.29    5   3  -8    3.09    1.90    5   3  -8    8.03
3.05   -5  -3   8    5.52    2.17   -5  -3   8    3.79    1.74    4
3  -8    8.41    2.99    4   3  -8    7.96    1.89    4   3  -8
7.83    2.06   -4  -3   8    9.68    2.51   -4  -3   8    8.47    2.11
3   3  -8    2.67    1.29    3   3  -8    0.63    2.16    3   3  -8
1.04    1.33   -3  -3   8   -0.17    1.03   -3  -3   8    5.19    1.87
2   3  -8   12.51    2.85    2   3  -8    3.03    1.34   -2  -3   8
4.58    1.70   -2  -3   8    5.72    1.83    1   3  -8   -0.94    0.85
1   3  -8   -1.13    1.40   -1  -3   8    2.02    1.32   -1  -3   8
1.13    1.24    0   3  -8   15.64    2.57    0   3  -8   12.56    2.06
0  -3   8   14.95    2.49    0  -3   8   19.10    3.00   -1   3  -8
3.44    1.63   -1   3  -8    2.14    1.25   -1   3  -8    2.34    1.49
1  -3   8    3.30    1.54    1  -3   8    1.80    1.32   -2   3  -8
14.72    2.41   -2   3  -8   15.97    2.40   -2   3  -8   19.03
3.03    2  -3   8   12.34    2.31    2  -3   8   12.37    2.32    2
-3   8   11.43    2.32   -3   3  -8    8.23    2.03   -3   3  -8
7.30    2.27   -3   3  -8    6.95    1.87    3  -3   8    5.72    1.88
3  -3   8    9.29    2.22    3  -3   8   10.08    2.15    3  -3   8
5.63    1.85   -4   3  -8    3.36    1.86   -4   3  -8    1.67    1.20
-4   3  -8    2.31    1.58    4  -3   8    4.71    1.69    4  -3   8
3.77    1.54    4  -3   8    1.58    1.48   -5   3  -8   11.09    2.36
-5   3  -8   13.38    2.44   -5   3  -8    6.47    2.10   -5   3  -8
12.87    2.49   -5   3  -8   11.79    2.76    5  -3   8   13.77
2.37    5  -3   8   10.66    2.42    5  -3   8   10.84    2.40   -6
3  -8    9.71    2.47   -6   3  -8    9.25    2.64   -6   3  -8
12.42    2.69   -6   3  -8    8.43    2.26    6  -3   8    8.29
2.29    6  -3   8   12.31    2.60    6  -3   8    9.84    2.34   -7
3  -8    6.33    2.24   -7   3  -8   11.63    2.69   -7   3  -8
5.08    2.15    7  -3   8    7.62    2.32    7  -3   8    7.09    2.32
7  -3   8    5.66    2.14   -8   3  -8   35.85    4.58   -8   3  -8
24.34    3.84   -8   3  -8   18.96    3.64    8  -3   8   28.09
4.22    8  -3   8   23.28    3.74    8  -3   8   33.48    4.30   -9
3  -8   34.75    4.69   -9   3  -8   42.25    5.18   -9   3  -8
27.05    4.40    9  -3   8   47.18    5.41    9  -3   8   31.12
4.46    9   2  -8   95.45    9.50   -9  -2   8  101.17    7.49    8
2  -8   60.06    7.48   -8  -2   8   63.53    5.94    7   2  -8
101.95    9.02   -7  -2   8  112.61    7.14    6   2  -8  106.97
8.48   -6  -2   8  105.28    6.62   -6  -2   8  114.01    7.25    5
2  -8   90.68    7.41    5   2  -8   90.12    5.54   -5  -2   8
111.20    6.91   -5  -2   8   98.58    6.04    4   2  -8  137.12
6.38    4   2  -8  132.52    8.49   -4  -2   8  117.53    6.54   -4
-2   8  118.21    7.16    3   2  -8   44.80    4.84    3   2  -8
45.30    3.31   -3  -2   8   44.57    4.38   -3  -2   8   39.91
3.73    2   2  -8   90.44    4.22    2   2  -8   81.10    5.72   -2
-2   8   88.20    5.10   -2  -2   8   90.93    5.81    1   2  -8
30.29    2.53    1   2  -8   39.25    3.92   -1  -2   8   33.26
3.23   -1  -2   8   31.68    3.65    0   2  -8   32.20    2.60    0
2  -8   30.50    3.26    0  -2   8   30.55    3.12    0  -2   8
34.48    3.64   -1   2  -8    4.93    1.41   -1   2  -8    3.05
1.45    1  -2   8    1.91    1.37    1  -2   8    5.31    1.75    1
-2   8    2.86    1.39   -2   2  -8    0.14    1.15   -2   2  -8
1.16    1.14    2  -2   8    0.88    1.32    2  -2   8    0.77    1.20
2  -2   8    0.20    0.98    2  -2   8    0.68    1.18   -3   2  -8
11.26    2.01   -3   2  -8   10.33    2.39   -3   2  -8    8.77
2.05    3  -2   8    8.44    2.05    3  -2   8    7.32    1.93    3
-2   8   11.07    2.25    3  -2   8   10.23    1.96   -4   2  -8
-0.33    1.04   -4   2  -8   -0.88    0.91   -4   2  -8    2.18
1.40   -4   2  -8    3.18    1.32   -4   2  -8    1.09    1.17    4
-2   8    3.00    1.37    4  -2   8    0.36    1.10    4  -2   8
2.16    1.18    4  -2   8    1.47    1.10    4  -2   8    2.60    1.45
-5   2  -8   28.71    3.23   -5   2  -8   32.07    3.61   -5   2  -8
38.77    3.77   -5   2  -8   33.15    3.76   -5   2  -8   37.18
3.48   -5   2  -8   33.65    3.68    5  -2   8   37.12    3.47    5
-2   8   30.71    3.40    5  -2   8   30.18    3.49    5  -2   8
38.00    3.58    5  -2   8   28.82    3.32   -6   2  -8   37.18
4.09   -6   2  -8   38.70    4.17   -6   2  -8   42.42    4.03   -6
2  -8   45.25    4.17   -6   2  -8   50.51    4.37    6  -2   8
43.22    4.01    6  -2   8   47.90    4.24    6  -2   8   45.73
4.33    6  -2   8   44.79    4.06   -7   2  -8   64.74    5.13   -7
2  -8   55.79    4.89   -7   2  -8   56.56    4.93    7  -2   8
57.95    4.79    7  -2   8   52.63    4.84    7  -2   8   55.15
4.80   -8   2  -8   54.18    5.24   -8   2  -8   54.85    5.19   -8
2  -8   56.64    5.19    8  -2   8   49.79    5.04    8  -2   8
52.81    5.00    8  -2   8   55.10    4.96   -9   2  -8   36.98
4.98   -9   2  -8   21.05    3.86   -9   2  -8   37.97    4.53    9
-2   8   28.46    4.25    9  -2   8   27.20    4.37  -10   2  -8
46.42    5.90   10  -2   8   36.08    4.93   10  -2   8   50.48
5.96    9   1  -8    9.69    4.00   -9  -1   8   15.76    3.54    8
1  -8   23.38    5.32   -8  -1   8   27.17    4.29    7   1  -8
35.33    5.95   -7  -1   8   32.44    4.33   -7  -1   8   34.83
4.44    6   1  -8    8.64    2.34    6   1  -8   10.06    3.59   -6
-1   8    8.91    2.53   -6  -1   8    6.22    2.07    5   1  -8
2.05    2.33    5   1  -8    3.47    1.85   -5  -1   8    6.03    2.05
-5  -1   8    4.76    1.76    4   1  -8   26.65    4.43    4   1  -8
30.77    3.18   -4  -1   8   40.12    4.25   -4  -1   8   43.28
3.86    3   1  -8  115.65    7.28    3   1  -8  114.99    5.41   -3
-1   8  114.21    5.97   -3  -1   8  117.35    6.73    2   1  -8
108.87    4.74    2   1  -8   94.25    6.36   -2  -1   8  112.79
5.71   -2  -1   8  104.71    6.23    1   1  -8   27.55    3.36   -1
-1   8   28.48    2.92   -1  -1   8   27.53    3.34    0   1  -8
5.33    1.88    0  -1   8    3.58    1.48    0  -1   8    1.13    1.13
-1   1  -8    2.32    1.46    1  -1   8   -0.05    0.97    1  -1   8
3.42    1.37    1  -1   8    2.69    1.68   -2   1  -8    8.96    2.16
-2   1  -8    5.91    1.51    2  -1   8   11.35    2.04    2  -1   8
5.05    1.71    2  -1   8    4.23    1.77   -3   1  -8    2.73    1.43
-3   1  -8    2.92    1.22   -3   1  -8   -0.42    1.12    3  -1   8
1.51    1.05    3  -1   8    1.10    1.21    3  -1   8    2.06    1.20
3  -1   8    0.55    1.34    3  -1   8    0.87    1.05   -4   1  -8
15.18    2.23   -4   1  -8   14.36    2.54   -4   1  -8    9.90
2.28    4  -1   8   16.13    2.25    4  -1   8   13.56    2.56    4
-1   8   11.56    2.07    4  -1   8   16.62    2.67   -5   1  -8
1.42    1.37   -5   1  -8    0.26    1.15   -5   1  -8   -0.02    1.06
-5   1  -8   -1.70    0.87   -5   1  -8   -0.72    1.03    5  -1   8
0.78    1.13    5  -1   8   -0.86    0.82    5  -1   8   -0.61    1.15
5  -1   8   -0.15    0.97    5  -1   8   -0.62    0.98   -6   1  -8
13.59    2.76   -6   1  -8   16.34    2.74   -6   1  -8   11.40
2.34   -6   1  -8   10.19    2.48   -6   1  -8   14.36    2.50    6
-1   8   11.30    2.47    6  -1   8   13.07    2.79    6  -1   8
9.89    2.18    6  -1   8   13.61    2.46    6  -1   8   10.96    2.40
-7   1  -8   58.73    4.47   -7   1  -8   60.77    4.88   -7   1  -8
61.17    5.51   -7   1  -8   62.68    5.16    7  -1   8   60.38
4.52    7  -1   8   59.25    5.08    7  -1   8   61.77    4.69    7
-1   8   58.00    5.30   -8   1  -8   56.02    5.05   -8   1  -8
59.60    5.58    8  -1   8   78.93    6.02    8  -1   8   62.82
5.25    8  -1   8   72.70    5.62   -9   1  -8   46.35    5.21   -9
1  -8   40.71    4.64    9  -1   8   36.63    4.87    9  -1   8
43.73    5.32    9  -1   8   44.01    4.79  -10   1  -8   33.40
4.72  -10   1  -8   26.62    4.59   10  -1   8   38.83    4.98   10
-1   8   25.54    4.44    9   0  -8   19.32    5.38   -9   0   8
26.11    4.30    8   0  -8   37.29    6.29   -8   0   8   36.28
4.79    7   0  -8   52.12    6.73   -7   0   8   49.76    5.10    6
0  -8  108.11    6.24    6   0  -8   94.44    8.44   -6   0   8
110.09    6.85   -6   0   8  119.43    6.94    5   0  -8  106.20
5.82    5   0  -8  108.32    8.09   -5   0   8  105.70    6.54   -5
0   8   99.60    6.00    4   0  -8   60.90    5.83    4   0  -8
58.11    4.01   -4   0   8   54.02    4.43   -4   0   8   53.06
4.04    3   0  -8  121.29    7.58    3   0  -8  140.06    5.92   -3
0   8  142.78    7.35   -3   0   8  121.95    6.21    2   0  -8
56.63    3.30    2   0  -8   46.58    4.65   -2   0   8   51.63
4.13   -2   0   8   55.84    3.79    1   0  -8   60.91    4.60   -1
0   8   58.53    3.73   -1   0   8   56.01    4.27    0   0  -8
127.07    6.70    0   0   8  115.24    6.37   -1   0  -8   43.99
3.96    1   0   8   37.28    3.67    1   0   8   38.06    3.05    1
0   8   41.16    3.88   -2   0  -8   33.31    3.49    2   0   8
29.46    3.41    2   0   8   33.80    2.87    2   0   8   34.71
3.48    2   0   8   31.65    2.42   -3   0  -8    8.91    2.14   -3
0  -8    9.54    2.26    3   0   8   10.77    1.78    3   0   8
10.78    1.85    3   0   8   10.78    2.29    3   0   8    8.75
2.09   -4   0  -8    1.25    1.25   -4   0  -8    1.20    1.01   -4
0  -8    2.20    1.43    4   0   8    2.71    1.49    4   0   8
2.42    1.27    4   0   8    2.06    1.22    4   0   8    1.43    1.53
-5   0  -8    7.51    1.84   -5   0  -8    6.11    1.68   -5   0  -8
5.76    1.94   -5   0  -8    5.49    1.85    5   0   8    0.07    1.05
5   0   8    6.51    2.00    5   0   8    5.56    1.83    5   0   8
3.65    1.45   -6   0  -8    3.30    1.74   -6   0  -8    1.36    1.36
-6   0  -8    5.39    1.74   -6   0  -8    6.22    2.17    6   0   8
1.85    1.43    6   0   8    3.06    1.65    6   0   8    3.46    1.48
6   0   8    2.65    1.87   -7   0  -8    6.18    1.92   -7   0  -8
7.53    2.35    7   0   8    6.79    2.12    7   0   8    2.75    1.88
7   0   8    4.22    1.79   -8   0  -8    0.91    1.46    8   0   8
3.48    2.01    8   0   8    2.76    1.93    8   0   8    1.83    1.59
-9   0  -8    7.46    2.32   -9   0  -8    2.20    1.88    9   0   8
3.10    1.98    9   0   8    4.47    2.19    9   0   8    0.64    1.97
-10   0  -8    5.32    2.44  -10   0  -8    2.41    2.31   10   0   8
1.98    2.05   10   0   8    5.49    2.68   10   0   8    2.15    2.54
9  -1  -8    3.52    3.56   -9   1   8   11.52    3.21    8  -1  -8
17.28    4.74   -8   1   8   11.22    3.03    7  -1  -8   26.35
5.30   -7   1   8   28.40    2.51   -7   1   8   25.97    4.03    6
-1  -8   81.69    7.74    6  -1  -8   82.39    5.27   -6   1   8
65.08    5.38   -6   1   8   74.53    5.39    5  -1  -8  113.28
6.00    5  -1  -8  100.53    7.92   -5   1   8  102.25    6.16   -5
1   8  112.10    6.60    4  -1  -8   94.94    7.04    4  -1  -8
95.16    5.13   -4   1   8   91.54    5.78   -4   1   8   90.76
5.38    3  -1  -8  148.29    6.35    3  -1  -8  158.79    8.75   -3
1   8  145.38    6.78   -3   1   8  149.44    7.56    2  -1  -8
109.35    4.92    2  -1  -8  105.68    6.66   -2   1   8  101.55
5.16   -2   1   8  105.30    6.09    1  -1  -8   43.04    4.15    1
-1  -8   47.05    2.76   -1   1   8   43.14    3.87   -1   1   8
43.61    3.09    0  -1  -8   71.25    4.97    0   1   8   74.66
4.01    0   1   8   71.92    4.93    0   1   8   64.85    4.59   -1
-1  -8  179.59    8.48    1   1   8  186.73    6.90    1   1   8
178.25    8.40    1   1   8  189.65    7.04    1   1   8  162.15
8.16   -2  -1  -8  110.42    6.28   -2  -1  -8  102.41    6.08    2
1   8  107.66    4.97    2   1   8  106.40    6.14    2   1   8
112.99    6.23   -3  -1  -8   40.48    3.93   -3  -1  -8   40.01
3.92    3   1   8   43.52    3.18    3   1   8   42.79    3.95    3
1   8   38.38    3.79   -4  -1  -8    4.45    1.78   -4  -1  -8
7.01    2.04    4   1   8    6.89    1.73    4   1   8    4.29    1.80
4   1   8    6.79    2.00   -5  -1  -8   10.16    2.53   -5  -1  -8
12.96    2.78    5   1   8   12.19    2.61    5   1   8    9.84
2.09    5   1   8    7.28    2.10   -6  -1  -8    0.01    0.98   -6
-1  -8    0.43    1.27   -6  -1  -8    1.06    1.48    6   1   8
2.75    1.60    6   1   8    1.48    1.51   -7  -1  -8    1.99    1.60
7   1   8    0.45    1.27    7   1   8   -0.27    1.22    7   1   8
-0.42    1.40   -8  -1  -8    0.36    1.75    8   1   8    2.23
1.62    8   1   8    1.26    1.54    8   1   8    0.78    1.90    9
1   8   16.25    3.43    9   1   8   16.74    3.69    9   1   8
18.50    3.34  -10  -1  -8   19.86    3.94   10   1   8   17.62
3.53   10   1   8   20.77    4.31   10   1   8   24.77    4.43    9
-2  -8    2.01    3.58   -9   2   8    3.54    2.18    8  -2  -8
9.16    4.12   -8   2   8   13.90    3.20    7  -2  -8    9.04    3.73
-7   2   8   13.67    3.02    6  -2  -8    2.05    2.58   -6   2   8
3.68    1.19   -6   2   8    0.87    1.48    5  -2  -8   13.90    2.61
5  -2  -8   14.54    3.86   -5   2   8   15.13    2.80   -5   2   8
13.97    2.64    4  -2  -8   28.89    3.03    4  -2  -8   27.22
4.44   -4   2   8   35.73    3.45   -4   2   8   36.39    3.68    3
-2  -8   24.43    3.93    3  -2  -8   29.46    2.82   -3   2   8
25.80    2.81   -3   2   8   30.85    3.37    2  -2  -8   20.70
2.29    2  -2  -8   16.53    3.15   -2   2   8   21.04    2.35   -2
2   8   20.43    2.84    1  -2  -8   32.57    2.50    1  -2  -8
32.58    3.71   -1   2   8   31.47    2.62   -1   2   8   30.14
3.29    0  -2  -8   12.86    2.58    0   2   8   15.43    1.89    0
2   8   11.59    2.23    0   2   8   10.28    2.38   -1  -2  -8
31.47    3.58   -1  -2  -8   24.13    3.18    1   2   8   29.85
3.50    1   2   8   30.31    2.58    1   2   8   29.66    3.31   -2
-2  -8   -0.27    1.03   -2  -2  -8    0.32    1.18    2   2   8
-0.95    1.01    2   2   8    0.43    0.83    2   2   8    0.15
0.96   -3  -2  -8   -0.15    1.08   -3  -2  -8    2.93    1.47    3
2   8   -0.94    1.02    3   2   8    0.57    0.92    3   2   8
1.81    1.33   -4  -2  -8    9.07    2.32   -4  -2  -8    7.76    2.16
4   2   8   11.93    2.57    4   2   8    8.88    2.18    4   2   8
9.13    1.93   -5  -2  -8    1.59    1.40   -5  -2  -8    0.64    1.40
5   2   8    1.55    1.45    5   2   8    1.58    1.59    5   2   8
2.24    1.47   -6  -2  -8    7.00    2.26   -6  -2  -8    7.48    2.42
6   2   8    6.66    2.29    6   2   8    5.65    1.94   -7  -2  -8
-0.16    1.43    7   2   8   -0.04    1.59    7   2   8    1.35
1.39   -8  -2  -8   -0.40    1.85    8   2   8    0.98    1.66    8
2   8    0.29    1.57    9   2   8    0.53    1.67    9   2   8
3.01    2.29   10   2   8    0.36    1.83   10   2   8   -0.21    1.75
8  -3  -8    3.98    3.82   -8   3   8    6.75    2.72    7  -3  -8
20.26    5.06   -7   3   8   20.73    3.67    6  -3  -8   66.80
7.46   -6   3   8   65.72    3.68   -6   3   8   71.21    5.22    5
-3  -8   41.20    5.84    5  -3  -8   41.28    3.81   -5   3   8
34.22    3.74    4  -3  -8   50.98    5.66    4  -3  -8   56.03
3.98   -4   3   8   54.18    4.06   -4   3   8   57.31    4.26    3
-3  -8   79.98    4.61    3  -3  -8   91.05    6.53   -3   3   8
79.63    5.12    2  -3  -8  179.36    7.08    2  -3  -8  187.35
9.35   -2   3   8  164.80    7.28   -2   3   8  183.02    8.41   -2
3   8  173.65    7.03    1  -3  -8  201.28    7.40    1  -3  -8
198.33    9.60   -1   3   8  209.48    9.15   -1   3   8  202.87
8.06    0  -3  -8  248.53   10.51    0  -3  -8  246.39    8.06    0
-3  -8  246.85   10.76    0   3   8  239.26   10.26    0   3   8
241.96   10.53    0   3   8  241.52    9.19   -1  -3  -8  306.78
12.55   -1  -3  -8  314.13   12.41    1   3   8  309.67   12.49    1
3   8  310.72   11.06    1   3   8  308.07   12.24   -2  -3  -8
198.79    9.20   -2  -3  -8  194.68    9.17    2   3   8  208.29
8.15    2   3   8  187.95    8.90    2   3   8  185.24    9.05   -3
-3  -8  138.19    7.47   -3  -3  -8  142.95    7.59    3   3   8
131.59    6.45    3   3   8  139.86    7.34    3   3   8  134.94
7.36   -4  -3  -8   90.40    5.95   -4  -3  -8   79.02    5.70    4
3   8   89.73    5.85    4   3   8   93.86    5.26    4   3   8
93.71    5.97   -5  -3  -8   32.29    4.16   -5  -3  -8   32.52
4.05    5   3   8   38.61    4.28    5   3   8   38.34    3.78   -6
-3  -8   53.95    5.30   -6  -3  -8   58.51    5.36    6   3   8
70.14    4.95    6   3   8   56.19    5.24   -7  -3  -8   48.58
5.18    7   3   8   45.02    4.63    7   3   8   49.01    5.13   -8
-3  -8   10.63    3.09    8   3   8   12.18    3.16    8   3   8
5.97    2.27    9   3   8   -0.16    1.65    9   3   8    0.65    1.61
10   3   8    0.12    2.03   10   3   8    3.05    2.27    8  -4  -8
0.67    3.32   -8   4   8   -0.16    1.91    7  -4  -8   -0.17    2.88
-7   4   8   -0.07    1.69    6  -4  -8    1.03    2.72   -6   4   8
1.81    1.72   -6   4   8    0.35    1.04    5  -4  -8    2.96    2.91
-5   4   8    1.54    0.98   -5   4   8    2.78    1.61    4  -4  -8
-0.08    1.34    4  -4  -8   -0.10    2.02   -4   4   8    0.63
1.26    3  -4  -8    3.78    2.30    3  -4  -8   -1.09    1.17   -3
4   8    1.00    1.16   -3   4   8    2.17    1.33    2  -4  -8
-0.70    1.46    2  -4  -8    3.54    1.46    2  -4  -8    1.55
1.26   -2   4   8    0.16    1.02   -2   4   8    1.42    1.12    1
-4  -8    2.52    1.71    1  -4  -8    6.40    1.95    1  -4  -8
4.05    1.37   -1   4   8    3.06    1.31   -1   4   8    6.87    1.84
0  -4  -8    3.89    1.79    0  -4  -8    9.01    2.18    0  -4  -8
6.93    1.48    0   4   8    8.13    2.01    0   4   8    4.83    1.96
0   4   8    5.43    1.55   -1  -4  -8   15.71    2.96   -1  -4  -8
16.43    2.79    1   4   8   19.01    2.86    1   4   8   16.71
2.35    1   4   8   19.23    3.15   -2  -4  -8    0.49    1.26   -2
-4  -8    0.54    1.12    2   4   8   -1.11    1.03    2   4   8
0.27    0.87    2   4   8    0.07    1.00   -3  -4  -8    0.76    1.31
-3  -4  -8   -1.35    0.94    3   4   8   -0.17    0.95    3   4   8
0.12    1.17    3   4   8   -0.71    0.95   -4  -4  -8    5.31    1.94
-4  -4  -8    5.40    1.96    4   4   8    4.97    1.67    4   4   8
6.06    1.97    4   4   8    5.44    1.98   -5  -4  -8   15.18    3.06
-5  -4  -8   13.00    2.87    5   4   8   10.30    2.69    5   4   8
15.99    2.68   -6  -4  -8    4.38    2.14   -6  -4  -8    4.68
2.04    6   4   8    2.11    1.76    6   4   8    0.59    1.25   -7
-4  -8    6.35    2.56    7   4   8    5.68    2.28    7   4   8
5.65    2.08    8   4   8    1.45    1.46    8   4   8   -0.36    1.62
9   4   8    0.56    1.77    9   4   8   -2.09    1.26   10   4   8
0.62    2.00   10   4   8    4.22    2.36    8  -5  -8   16.50    5.09
-8   5   8    8.34    2.89    7  -5  -8    0.26    2.90   -7   5   8
-1.41    1.53    6  -5  -8   -1.75    2.41   -6   5   8   -0.05
1.65    5  -5  -8    4.94    2.93   -5   5   8    0.95    0.95    4
-5  -8   17.28    3.93    4  -5  -8   14.89    2.56   -4   5   8
13.77    2.80    3  -5  -8   41.91    3.60    3  -5  -8   53.95
5.58   -3   5   8   34.38    3.86    2  -5  -8   58.08    4.31    2
-5  -8   53.37    3.74    2  -5  -8   58.25    5.42   -2   5   8
56.03    4.19   -2   5   8   49.03    4.21    1  -5  -8  123.44
5.78    1  -5  -8  129.67    7.50    1  -5  -8  130.50    6.90   -1
5   8  126.47    6.74   -1   5   8  129.17    6.58    0  -5  -8
187.33    8.96    0  -5  -8  196.64    7.31    0  -5  -8  186.53
9.27    0   5   8  184.44    8.75    0   5   8  190.72    9.20    0
5   8  193.43    8.56   -1  -5  -8  123.60    7.19   -1  -5  -8
146.76    5.62   -1  -5  -8  131.07    7.55    1   5   8  134.85
6.83    1   5   8  143.27    7.37    1   5   8  140.00    7.68   -2
-5  -8  198.14    9.53   -2  -5  -8  193.54    9.46    2   5   8
181.72    8.54    2   5   8  211.77    9.73    2   5   8  212.73
9.62   -3  -5  -8  132.69    7.70   -3  -5  -8  135.59    7.72    3
5   8  144.56    7.75    3   5   8  144.26    7.16    3   5   8
143.60    7.78   -4  -5  -8  141.20    7.98   -4  -5  -8  129.68
7.66    4   5   8  143.22    7.86    4   5   8  136.94    7.20   -5
-5  -8  113.12    7.36   -5  -5  -8  110.36    7.12    5   5   8
111.89    7.11    5   5   8  108.34    6.44   -6  -5  -8   68.02
6.15   -6  -5  -8   80.44    6.09    6   5   8   72.27    5.30    6
5   8   73.90    5.93   -7  -5  -8   58.65    5.93   -7  -5  -8
53.89    5.76    7   5   8   57.70    5.35    7   5   8   57.66
5.73    8   5   8   49.61    5.37    8   5   8   53.84    5.92    9
5   8   11.68    3.49    9   5   8   13.39    3.29   10   5   8
31.03    5.37   10   5   8   26.19    4.59    7  -6  -8    0.56
3.14    6  -6  -8    5.71    3.43    5  -6  -8    2.81    2.80   -5
6   8    1.21    1.12   -5   6   8    2.37    1.94    4  -6  -8
4.39    2.62   -4   6   8    2.56    1.94    3  -6  -8    5.04    1.77
3  -6  -8    7.14    2.85   -3   6   8    2.16    1.60    2  -6  -8
19.17    3.60    2  -6  -8    9.70    2.11   -2   6   8   10.20
2.44    1  -6  -8    3.89    1.76    1  -6  -8    1.82    1.65    1
-6  -8    2.20    1.32   -1   6   8    2.94    1.56   -1   6   8
0.53    1.13    0  -6  -8    4.68    1.83    0  -6  -8    2.53    1.66
0  -6  -8    3.71    1.36    0   6   8    2.51    1.40    0   6   8
3.29    1.53    0   6   8    4.36    1.91   -1  -6  -8    7.11    2.15
-1  -6  -8    6.14    2.03   -1  -6  -8    7.00    1.54    1   6   8
11.09    2.62    1   6   8    6.75    2.03    1   6   8    9.65
2.33   -2  -6  -8   15.37    2.91   -2  -6  -8   12.12    2.78    2
6   8   16.21    3.03    2   6   8   14.40    2.65    2   6   8
14.02    2.78   -3  -6  -8   57.19    5.06   -3  -6  -8   49.42
4.83    3   6   8   56.79    4.41    3   6   8   55.54    4.95   -4
-6  -8   99.28    6.50   -4  -6  -8   98.87    6.80    4   6   8
98.05    6.12    4   6   8  103.23    6.66   -5  -6  -8   31.98
4.18   -5  -6  -8   27.32    4.18    5   6   8   24.08    3.81    5
6   8   33.65    3.97   -6  -6  -8   25.29    4.14   -6  -6  -8
17.02    3.62    6   6   8   17.16    3.18    6   6   8   18.91
3.69   -7  -6  -8   11.76    3.16    7   6   8   11.91    3.20    7
6   8   13.32    3.05    8   6   8   41.79    5.06    8   6   8
37.66    5.13    9   6   8   29.79    5.08    9   6   8   23.45
4.35   10   6   8   21.76    4.59   10   6   8   18.05    3.97    6
-7  -8   10.44    4.13   -6   7   8   13.84    3.55    5  -7  -8
1.56    2.86   -5   7   8    0.02    1.65    4  -7  -8    5.72    2.82
-4   7   8    6.33    2.41    3  -7  -8    1.84    2.17   -3   7   8
-1.61    1.25    2  -7  -8    0.48    1.47    2  -7  -8    2.42
2.01   -2   7   8    2.77    1.73    1  -7  -8    8.34    1.95    1
-7  -8    7.91    2.56   -1   7   8    9.05    2.36   -1   7   8
4.55    1.75    0  -7  -8   25.47    3.76    0  -7  -8   19.58    3.19
0  -7  -8   28.84    2.86    0   7   8   31.29    4.01    0   7   8
17.61    3.11    0   7   8   26.17    3.40   -1  -7  -8   33.26
2.95   -1  -7  -8   33.52    4.06   -1  -7  -8   31.76    3.88    1
7   8   32.33    4.08    1   7   8   25.58    3.58   -2  -7  -8
31.81    4.04   -2  -7  -8   35.59    2.87   -2  -7  -8   38.19
4.31    2   7   8   35.74    3.98    2   7   8   35.60    4.20   -3
-7  -8   89.88    6.55   -3  -7  -8  104.10    6.65    3   7   8
99.06    6.27    3   7   8   92.84    6.34   -4  -7  -8   49.35
4.95   -4  -7  -8   56.31    5.56    4   7   8   55.57    5.18    4
7   8   59.60    5.13   -5  -7  -8   54.64    5.38   -5  -7  -8
58.42    5.83    5   7   8   49.42    4.93    5   7   8   60.59
5.54   -6  -7  -8   38.06    4.90    6   7   8   35.35    4.47    6
7   8   36.22    4.78   -7  -7  -8   39.67    5.21    7   7   8
39.16    5.16    7   7   8   31.07    4.37   -8  -7  -8   33.85
5.15    8   7   8   28.39    4.84    8   7   8   33.97    4.89    9
7   8   55.95    6.50    9   7   8   47.60    5.74   -6   8   8
12.34    3.62   -5   8   8    6.94    2.89    4  -8  -8    4.30
3.08   -4   8   8    3.25    2.23    3  -8  -8    8.59    3.14   -3
8   8    6.38    2.35    2  -8  -8    5.78    2.58   -2   8   8
9.56    2.64    1  -8  -8    3.32    2.01   -1   8   8    1.92    1.60
0  -8  -8    0.27    1.63    0  -8  -8    2.58    1.39    0   8   8
2.59    1.63   -1  -8  -8   30.18    3.97   -1  -8  -8   23.15    3.65
-1  -8  -8   22.82    2.75    1   8   8   23.47    3.60    1   8   8
21.54    3.57   -2  -8  -8   41.73    3.38   -2  -8  -8   48.77
5.13   -2  -8  -8   47.53    4.79    2   8   8   55.37    5.10    2
8   8   40.56    4.50   -3  -8  -8   24.82    3.76   -3  -8  -8
28.53    4.31   -3  -8  -8   31.74    2.92    3   8   8   32.57
4.21    3   8   8   35.49    4.33   -4  -8  -8   35.00    4.27   -4
-8  -8   25.13    4.28    4   8   8   27.12    3.98    4   8   8
29.25    4.06   -5  -8  -8   49.29    5.19    5   8   8   52.17
5.29    5   8   8   51.57    5.23   -6  -8  -8   38.35    4.90    6
8   8   41.65    4.99    6   8   8   37.17    4.84   -7  -8  -8
65.68    6.40    7   8   8   73.29    6.47    7   8   8   63.85
6.40   -8  -8  -8   68.74    7.01    8   8   8   69.59    6.99    8
8   8   76.97    6.95   -9  -8  -8   51.11    6.53    9   8   8
54.96    6.25    9   8   8   60.81    6.84   -5   9   8   22.94
4.62   -4   9   8    7.35    2.92   -3   9   8    3.01    2.30   -2
9   8    2.60    1.87    1  -9  -8    4.28    2.21   -1   9   8
0.20    1.55    0  -9  -8    7.19    2.55    0   9   8    2.56    1.94
-1  -9  -8   -0.13    1.68   -1  -9  -8    3.16    1.74    1   9   8
-0.53    1.30    1   9   8    2.41    1.91   -2  -9  -8    0.64
1.88   -2  -9  -8    2.36    1.74   -2  -9  -8    0.97    1.31    2
9   8    0.83    1.85    2   9   8    0.63    1.41   -3  -9  -8
1.00    1.21   -3  -9  -8    1.84    1.74   -3  -9  -8    0.98    2.09
3   9   8   -0.06    1.35    3   9   8    4.00    2.25   -4  -9  -8
10.95    2.79   -4  -9  -8    8.67    1.89    4   9   8   14.54
3.09    4   9   8    6.47    2.36   -5  -9  -8    3.76    1.95    5
9   8    6.94    2.52    5   9   8    6.60    2.36   -6  -9  -8
18.46    3.78    6   9   8    8.74    2.75    6   9   8   12.98
3.35   -7  -9  -8    7.54    2.73    7   9   8    4.97    2.44    7
9   8    6.71    2.85   -8  -9  -8    2.39    2.28    8   9   8
3.39    2.68    8   9   8    0.44    1.90   -4  10   8   44.63    5.98
-3  10   8   29.99    4.97   -2  10   8   16.56    3.78   -1  10   8
10.56    3.18    0  10   8    6.79    2.54    1  10   8   -0.43
1.57    1  10   8    0.11    1.81   -2 -10  -8   -0.71    1.52    2
10   8   -0.86    1.41    2  10   8   -0.82    1.61   -3 -10  -8
2.20    1.97    3  10   8    2.18    1.96    3  10   8    7.41    2.55
-4 -10  -8   12.28    2.97    4  10   8   18.22    3.52    4  10   8
11.84    3.13   -5 -10  -8   33.05    4.48    5  10   8   20.96
3.99    5  10   8   22.05    4.01   -6 -10  -8   45.35    5.37    6
10   8   46.84    5.56    6  10   8   42.79    5.59   -7 -10  -8
41.82    5.43    7  10   8   28.59    4.80    7  10   8   32.81
5.13   -2  11   8    1.70    2.14   -1  11   8    3.34    2.52    0
11   8    0.62    1.77    1  11   8    0.58    1.88    2  11   8
-0.33    1.63    3  11   8    0.49    1.84    4  11   8    0.73
1.86   -5 -11  -8    0.60    1.97    5  11   8   -1.82    1.70    5
11   8   -0.31    1.59   -6 -11  -8    3.22    2.29    6  11   8
-2.71    1.63    6  11   8    1.38    2.13    0  12   8   25.36
4.95    1  12   8   21.49    4.54    2  12   8    8.37    3.09    3
12   8    8.85    3.12    4  12   8    3.61    2.61    3  10  -9
9.45    3.06    3  10  -9    2.35    3.08   -3 -10   9    3.70    2.28
2  10  -9    2.05    3.03    2  10  -9    3.04    2.52   -2 -10   9
0.57    1.80    1  10  -9    3.28    2.33    1  10  -9    2.25    3.03
-1 -10   9    2.19    2.02    0  10  -9   -1.15    1.89    0  10  -9
-4.29    2.08    0 -10   9   -0.03    1.77   -1  10  -9    2.87
2.48   -1  10  -9    0.95    2.28    1 -10   9    1.99    2.11   -2
10  -9    0.24    2.56   -2  10  -9    0.81    2.40    2 -10   9
-0.19    1.85    5   9  -9   55.50    5.91   -5  -9   9   37.94
5.30    4   9  -9   32.86    4.76    4   9  -9   33.39    5.47   -4
-9   9   29.51    4.67    3   9  -9   27.19    5.11    3   9  -9
19.60    3.82   -3  -9   9   25.90    4.28    2   9  -9   12.42
3.22    2   9  -9   19.48    4.38   -2  -9   9   11.68    3.09    1
9  -9   14.00    3.39    1   9  -9    9.48    3.77   -1  -9   9
16.19    3.37    0   9  -9    5.30    3.27    0   9  -9    7.92
2.73    0  -9   9    6.85    2.53   -1   9  -9   -0.69    1.84   -1
9  -9    1.73    2.68    1  -9   9    1.84    1.97   -2   9  -9
3.09    2.16   -2   9  -9   -0.27    2.24    2  -9   9   -1.58    1.25
-3   9  -9    2.91    2.43   -3   9  -9    3.22    2.99    3  -9   9
2.28    1.83   -4   9  -9    0.82    2.34   -4   9  -9   -2.62    2.34
4  -9   9    0.57    1.95    6   8  -9   29.59    4.59   -6  -8   9
37.71    5.28    5   8  -9   61.57    5.84   -5  -8   9   58.38
6.07    4   8  -9   43.85    5.62    4   8  -9   49.41    5.29   -4
-8   9   41.97    5.12    3   8  -9   53.71    6.21    3   8  -9
51.60    5.27   -3  -8   9   50.03    5.45    2   8  -9   40.03
4.77    2   8  -9   36.47    5.27   -2  -8   9   28.57    4.23    1
8  -9   24.48    4.03    1   8  -9   33.90    5.27   -1  -8   9
30.09    4.48    0   8  -9   13.62    3.65    0   8  -9    7.67
2.64    0  -8   9   19.29    3.75   -1   8  -9   12.83    3.27   -1
8  -9    9.90    3.31    1  -8   9   18.08    3.50   -2   8  -9
1.46    2.28   -2   8  -9    4.92    2.23    2  -8   9    4.99    2.12
-3   8  -9   -1.16    1.79   -3   8  -9    0.54    2.23    3  -8   9
0.45    1.57   -4   8  -9    2.20    2.25   -4   8  -9   -0.77    2.39
4  -8   9   -0.19    1.59   -5   8  -9    5.80    2.62   -5   8  -9
4.89    3.24   -5   8  -9    7.38    2.81    5  -8   9    0.32    1.84
-7  -7   9   21.74    4.26    6   7  -9   31.72    4.46   -6  -7   9
41.19    5.31    5   7  -9   38.28    4.56   -5  -7   9   35.85
4.77    4   7  -9   20.60    3.87    4   7  -9   26.09    3.79   -4
-7   9   19.53    3.73    3   7  -9   39.08    4.40    3   7  -9
34.10    4.73   -3  -7   9   34.95    4.48    2   7  -9   13.58
3.36    2   7  -9   12.57    2.83   -2  -7   9   17.46    3.39    1
7  -9   18.54    3.92    1   7  -9   20.42    3.49   -1  -7   9
15.25    3.28   -1  -7   9   18.60    3.50    0   7  -9   18.84
3.32    0   7  -9   17.82    3.88    0  -7   9   17.67    3.44    0
-7   9   24.43    3.88   -1   7  -9   20.18    4.06   -1   7  -9
13.74    3.02    1  -7   9   16.99    3.33    1  -7   9   20.50
3.59   -2   7  -9    1.88    2.14   -2   7  -9    1.54    1.76    2
-7   9    0.77    1.67   -3   7  -9    0.36    1.66   -3   7  -9
0.83    2.21    3  -7   9   -0.09    1.35   -4   7  -9   -0.53    1.99
-4   7  -9    4.35    2.23    4  -7   9    0.89    1.63   -5   7  -9
0.35    1.83   -5   7  -9    0.78    1.99   -5   7  -9    2.27    2.69
5  -7   9    0.51    1.95    5  -7   9   -1.71    1.40   -6   7  -9
0.27    1.85   -6   7  -9    2.22    2.75   -6   7  -9    3.52    2.18
6  -7   9    0.53    1.89    6  -7   9   -0.42    1.81    7   6  -9
34.03    6.00   -7  -6   9   34.03    4.83   -6  -6   9   50.10
5.56   -5  -6   9   94.16    6.84    4   6  -9  115.36    7.34    4
6  -9  108.36    6.58    4   6  -9  109.81    6.58   -4  -6   9
118.03    7.31    3   6  -9  113.83    6.76    3   6  -9  116.70
7.46   -3  -6   9  123.70    7.44    2   6  -9  107.90    7.17    2
6  -9   91.22    5.96   -2  -6   9  104.51    6.69   -2  -6   9
96.17    6.95    1   6  -9   86.48    6.50    1   6  -9   83.45
5.57   -1  -6   9   74.47    6.04   -1  -6   9   83.21    5.97    0
6  -9   98.59    6.07    0   6  -9   90.72    6.73    0  -6   9
84.06    6.34    0  -6   9  106.47    6.74   -1   6  -9   69.43
5.27   -1   6  -9   85.42    6.55    1  -6   9   78.34    5.72    1
-6   9   88.43    6.14   -2   6  -9   37.95    4.29   -2   6  -9
41.56    5.28    2  -6   9   43.58    4.62    2  -6   9   36.71
4.40   -3   6  -9   18.71    3.86   -3   6  -9   17.37    3.35    3
-6   9   12.41    2.90   -4   6  -9   26.65    4.03   -4   6  -9
22.21    4.33    4  -6   9   26.28    4.00    4  -6   9   27.00
4.14   -5   6  -9   23.36    3.94   -5   6  -9   16.86    3.60   -5
6  -9   19.66    4.32    5  -6   9   18.55    3.56    5  -6   9
21.77    3.78   -6   6  -9    1.16    1.95   -6   6  -9    5.30
2.86   -6   6  -9   -3.43    1.51    6  -6   9    1.77    2.08    6
-6   9    4.20    2.35   -7   6  -9    1.20    1.96   -7   6  -9
0.86    1.99    7  -6   9    2.00    1.95    7  -6   9    0.14    1.87
8   5  -9    0.53    3.34   -8  -5   9    6.30    2.59    7   5  -9
-0.62    2.90   -7  -5   9    1.46    1.81    6   5  -9    5.24
3.32   -6  -5   9    3.05    1.90    5   5  -9    1.35    2.58    5
5  -9   -0.16    1.47   -5  -5   9    2.76    1.80    4   5  -9
7.37    2.36    4   5  -9    3.69    1.87    4   5  -9    0.54    2.56
-4  -5   9    3.48    2.07    3   5  -9    3.63    2.62    3   5  -9
0.81    1.46    3   5  -9    8.14    2.14   -3  -5   9    2.12    1.86
-3  -5   9    4.58    1.96    2   5  -9    0.02    1.41    2   5  -9
2.63    1.57   -2  -5   9    1.74    1.66   -2  -5   9   -0.08    1.20
1   5  -9    6.49    2.24    1   5  -9    4.37    1.81   -1  -5   9
1.06    1.47   -1  -5   9    7.05    2.09    0   5  -9    1.87    1.68
0   5  -9   -0.15    1.25    0  -5   9    1.61    1.40    0  -5   9
-0.24    1.20   -1   5  -9    1.37    1.46   -1   5  -9    1.38
1.55    1  -5   9    0.43    1.33    1  -5   9    0.69    1.42   -2
5  -9   -0.53    1.34   -2   5  -9    1.63    1.42    2  -5   9
2.21    1.51    2  -5   9   -0.90    1.10   -3   5  -9   -0.77    1.38
-3   5  -9   -0.28    1.37    3  -5   9    0.16    1.30    3  -5   9
2.03    1.58   -4   5  -9   -1.15    1.58   -4   5  -9   -1.52    1.23
4  -5   9   -0.72    1.33    4  -5   9   -1.15    1.06   -5   5  -9
-0.35    1.86   -5   5  -9   -0.12    1.58   -5   5  -9   -0.01
1.49    5  -5   9   -1.62    1.38    5  -5   9   -0.66    1.62   -6
5  -9    0.56    1.61   -6   5  -9    1.80    2.43   -6   5  -9
1.60    1.79    6  -5   9    2.90    1.84    6  -5   9    2.86    1.94
-7   5  -9    0.38    1.73   -7   5  -9    0.18    1.82    7  -5   9
0.84    1.90    7  -5   9   -0.55    1.72   -8   5  -9   -0.04    1.81
-8   5  -9   -0.50    1.94    8  -5   9    1.08    2.05    8  -5   9
-2.77    1.61    8   4  -9   -1.31    2.75   -8  -4   9    1.99
2.03    7   4  -9   15.51    4.57   -7  -4   9   10.31    2.91    6
4  -9   27.67    5.34   -6  -4   9   33.70    4.42    5   4  -9
25.99    3.68    5   4  -9   20.53    4.45   -5  -4   9   18.78
3.41    4   4  -9   57.48    4.61    4   4  -9   54.21    4.93    4
4  -9   62.28    6.33   -4  -4   9   48.07    5.34   -4  -4   9
60.74    5.13    3   4  -9  107.68    7.35    3   4  -9  104.00
6.51    3   4  -9   97.27    5.45   -3  -4   9   92.52    6.70   -3
-4   9  104.34    6.40    2   4  -9  213.83   10.49    2   4  -9
208.43   10.03   -2  -4   9  218.52    9.77   -2  -4   9  220.56
10.85    1   4  -9  105.18    6.69    1   4  -9   99.31    6.46   -1
-4   9  119.30    6.57   -1  -4   9  119.37    7.22    0   4  -9
136.59    7.53    0   4  -9  119.44    6.18    0  -4   9  122.85
6.91    0  -4   9  127.33    7.52   -1   4  -9  196.66    8.36   -1
4  -9  184.14    9.37    1  -4   9  181.59    8.74    1  -4   9
178.70    9.17   -2   4  -9  122.39    7.26   -2   4  -9  121.01
6.41    2  -4   9  110.30    6.52    2  -4   9  105.11    6.62   -3
4  -9   82.19    6.16   -3   4  -9   81.04    5.44    3  -4   9
88.26    5.89    3  -4   9   87.37    5.49    3  -4   9   89.36
5.78   -4   4  -9   87.15    6.37   -4   4  -9   89.26    5.79    4
-4   9   83.74    5.75    4  -4   9   80.84    5.49   -5   4  -9
61.35    5.52   -5   4  -9   78.65    6.24   -5   4  -9   73.10
5.36    5  -4   9   75.63    5.38    5  -4   9   74.50    5.48   -6
4  -9   39.17    4.65   -6   4  -9   27.10    4.37   -6   4  -9
27.98    3.92    6  -4   9   36.16    4.23    6  -4   9   37.17
4.46   -7   4  -9   18.94    3.62   -7   4  -9   23.79    4.02    7
-4   9   22.77    3.76    7  -4   9   39.52    4.58   -8   4  -9
7.78    2.81   -8   4  -9    5.70    2.38    8  -4   9    9.45    2.89
8  -4   9    5.96    2.47    8   3  -9   -0.73    2.77   -8  -3   9
1.20    1.79    7   3  -9   -0.84    2.89   -7  -3   9    0.03    1.70
6   3  -9   -1.72    2.30   -6  -3   9    1.16    1.46    5   3  -9
-0.75    2.40    5   3  -9    2.09    2.01   -5  -3   9    0.70
1.42    4   3  -9   -0.80    1.50    4   3  -9    3.79    2.70   -4
-3   9    1.10    1.51   -4  -3   9   -0.48    1.11    3   3  -9
27.15    2.98    3   3  -9   29.47    4.50   -3  -3   9   20.25
3.15   -3  -3   9   23.03    3.65    2   3  -9   38.95    4.42   -2
-3   9   32.34    4.15   -2  -3   9   36.63    3.86    1   3  -9
14.55    2.98   -1  -3   9   12.66    2.79   -1  -3   9    8.77
2.17    0   3  -9   31.68    3.62    0  -3   9   25.52    3.28    0
-3   9   25.26    3.57   -1   3  -9   30.69    3.45   -1   3  -9
27.27    3.70    1  -3   9   28.17    3.49    1  -3   9   24.21
3.47   -2   3  -9   11.84    2.27   -2   3  -9   12.02    2.37   -2
3  -9   12.33    2.72    2  -3   9   13.22    2.48    2  -3   9
10.37    2.37    2  -3   9    9.61    2.42   -3   3  -9   47.34
4.01   -3   3  -9   41.18    4.49    3  -3   9   38.49    4.18    3
-3   9   45.93    4.16    3  -3   9   38.15    3.62   -4   3  -9
20.32    3.27   -4   3  -9   15.19    2.71   -4   3  -9   17.69
3.32    4  -3   9   12.14    2.61    4  -3   9   19.42    2.88    4
-3   9   14.55    2.89   -5   3  -9   26.57    3.46   -5   3  -9
23.10    3.68   -5   3  -9   23.67    3.57    5  -3   9   31.99
3.71    5  -3   9   25.91    3.43   -6   3  -9    9.70    2.92   -6
3  -9    9.70    2.44   -6   3  -9   12.01    2.79    6  -3   9
11.19    2.66    6  -3   9    9.23    2.53   -7   3  -9   15.16
3.18   -7   3  -9   13.16    2.95    7  -3   9   11.75    2.87    7
-3   9   18.37    3.27   -8   3  -9   11.34    2.99   -8   3  -9
15.09    3.35   -8   3  -9   20.26    3.80    8  -3   9   14.75
3.18    8  -3   9   13.90    3.18   -9   3  -9    3.02    2.25   -9
3  -9    5.21    2.42   -9   3  -9    2.63    2.37    9  -3   9
0.34    2.07    9  -3   9    2.83    2.33    8   2  -9    6.49    3.78
-8  -2   9    8.32    2.86    7   2  -9   -1.21    2.41   -7  -2   9
0.84    1.63    6   2  -9   -1.81    2.32   -6  -2   9    0.43    1.59
5   2  -9    6.26    2.23    5   2  -9    1.38    2.45   -5  -2   9
1.21    1.67   -5  -2   9    8.19    2.29    4   2  -9    0.13    2.28
4   2  -9    3.60    1.77   -4  -2   9    4.09    1.99   -4  -2   9
2.66    1.69    3   2  -9   50.95    3.63    3   2  -9   52.95    5.50
-3  -2   9   53.48    5.03   -3  -2   9   53.39    4.43    2   2  -9
47.01    4.80   -2  -2   9   51.81    4.31   -2  -2   9   53.39
4.93    1   2  -9   88.34    5.90   -1  -2   9   86.21    5.88   -1
-2   9   84.18    5.17    0   2  -9   81.10    5.34    0  -2   9
61.97    4.49    0  -2   9   70.34    5.22   -1   2  -9  112.77
6.39    1  -2   9  105.03    5.96    1  -2   9  112.30    6.64   -2
2  -9  192.50    8.85    2  -2   9  182.13    8.30    2  -2   9
197.30    9.32    2  -2   9  194.07    8.84   -3   2  -9  108.61
6.71   -3   2  -9  106.92    6.37    3  -2   9  114.41    6.77    3
-2   9  122.04    6.62    3  -2   9  119.82    6.29   -4   2  -9
83.49    5.02   -4   2  -9   88.99    5.87   -4   2  -9   86.58
5.62   -4   2  -9   74.45    5.54    4  -2   9   80.25    5.58    4
-2   9   93.10    5.45    4  -2   9   83.39    5.54   -5   2  -9
78.24    5.09   -5   2  -9   67.86    5.10   -5   2  -9   70.62
5.08   -5   2  -9   77.48    5.54   -5   2  -9   78.76    5.53    5
-2   9   73.70    5.34    5  -2   9   77.43    5.38    5  -2   9
69.45    4.92   -6   2  -9   45.65    4.71   -6   2  -9   43.37
4.25   -6   2  -9   46.35    4.38   -6   2  -9   53.04    4.54    6
-2   9   43.04    4.22    6  -2   9   43.20    4.25   -7   2  -9
45.06    4.51   -7   2  -9   43.89    4.48   -7   2  -9   34.75
4.07    7  -2   9   44.71    4.56    7  -2   9   43.89    4.42   -8
2  -9   24.42    3.97   -8   2  -9   35.72    4.48    8  -2   9
27.54    3.92    8  -2   9   20.67    3.79   -9   2  -9   14.25
3.65   -9   2  -9   13.94    3.36    9  -2   9   13.07    3.26    9
-2   9   18.50    3.81    8   1  -9   13.21    4.55   -8  -1   9
17.80    3.75    7   1  -9    4.79    3.45   -7  -1   9    5.42
2.25    6   1  -9   -0.48    2.50   -6  -1   9   -0.26    1.38   -6
-1   9   -1.37    1.19    5   1  -9    0.00    1.61    5   1  -9
0.36    2.27   -5  -1   9   -0.40    1.25   -5  -1   9   -0.05    1.23
4   1  -9    2.18    1.68    4   1  -9    2.80    2.48   -4  -1   9
4.16    1.80   -4  -1   9    3.00    1.55    3   1  -9   -2.09    1.69
3   1  -9   -1.25    1.12   -3  -1   9   -0.49    1.01   -3  -1   9
-0.29    1.02    2   1  -9    5.60    2.33   -2  -1   9    7.87
2.16   -2  -1   9    5.39    1.73    1   1  -9   30.49    3.87   -1
-1   9   31.19    3.27   -1  -1   9   42.79    4.25    0   1  -9
40.99    4.06    0  -1   9   44.40    3.69    0  -1   9   35.91
3.96   -1   1  -9   72.60    5.08    1  -1   9   73.58    5.06    1
-1   9   86.06    4.87    1  -1   9   68.73    5.09   -2   1  -9
83.39    5.51    2  -1   9   73.63    5.29    2  -1   9   83.27
5.58    2  -1   9   75.76    4.70   -3   1  -9   54.67    4.77   -3
1  -9   55.42    4.69    3  -1   9   47.97    4.48    3  -1   9
59.24    4.59   -4   1  -9  140.17    7.62   -4   1  -9  128.92
7.30    4  -1   9  137.12    7.35    4  -1   9  137.46    7.48   -5
1  -9   71.72    5.40   -5   1  -9   73.09    5.27   -5   1  -9
62.19    4.47   -5   1  -9   62.36    4.95    5  -1   9   68.70
5.18    5  -1   9   67.66    5.16   -6   1  -9   52.34    4.96   -6
1  -9   53.38    5.05   -6   1  -9   60.62    4.77    6  -1   9
50.53    4.49    6  -1   9   55.98    5.02    6  -1   9   49.75
4.79   -7   1  -9   82.77    5.73   -7   1  -9   84.98    5.63   -7
1  -9   75.75    6.04    7  -1   9   78.01    6.04    7  -1   9
75.75    5.56   -8   1  -9   80.96    6.22   -8   1  -9   94.90
6.35   -8   1  -9   86.92    6.74    8  -1   9  100.35    7.18    8
-1   9   90.58    6.47   -9   1  -9   42.85    5.24   -9   1  -9
44.21    4.97    9  -1   9   36.09    4.88    8   0  -9   25.35
5.78   -8   0   9   29.75    4.63    7   0  -9   23.89    5.36   -7
0   9   20.33    3.62    6   0  -9    5.67    3.44   -6   0   9
2.56    1.85   -6   0   9    6.68    2.22    5   0  -9   -1.49    1.55
5   0  -9    1.49    2.71   -5   0   9    0.21    1.24   -5   0   9
0.84    1.33    4   0  -9    6.96    2.94    4   0  -9    4.05    1.75
-4   0   9    6.72    1.92   -4   0   9    6.22    2.16    3   0  -9
7.76    1.84    3   0  -9    5.95    2.53   -3   0   9    6.23    2.00
-3   0   9    7.78    1.90    2   0  -9    6.18    1.61    2   0  -9
7.04    2.45   -2   0   9    4.33    1.76   -2   0   9    5.56    1.61
1   0  -9    7.95    2.26   -1   0   9   10.21    2.01   -1   0   9
8.50    2.17    0   0  -9   10.00    2.56    0   0   9   10.62    2.27
-1   0  -9   23.88    3.35    1   0   9   23.21    2.68    1   0   9
28.85    3.60    1   0   9   24.49    3.32   -2   0  -9   28.84
3.59    2   0   9   28.50    3.57    2   0   9   35.73    3.17    2
0   9   29.52    3.57   -3   0  -9   68.91    5.17   -3   0  -9
71.96    5.17    3   0   9   70.22    5.17    3   0   9   69.47
5.07   -4   0  -9   30.74    3.86   -4   0  -9   24.14    3.39    4
0   9   37.43    3.30    4   0   9   26.58    3.51    4   0   9
21.93    3.32   -5   0  -9   15.33    3.01   -5   0  -9    4.68
1.93    5   0   9    5.95    2.10    5   0   9    5.84    1.85    5
0   9    7.41    2.19   -6   0  -9   35.93    4.35   -6   0  -9
49.90    4.95   -6   0  -9   43.30    4.23    6   0   9   43.83
4.21    6   0   9   40.44    4.46    6   0   9   45.28    4.68   -7
0  -9   19.49    3.56   -7   0  -9   20.30    3.68    7   0   9
23.32    3.91    7   0   9   22.58    3.48   -8   0  -9   17.85
3.60    8   0   9   17.91    3.69    8   0   9    7.74    2.55   -9
0  -9   17.47    3.53   -9   0  -9   17.19    3.85    9   0   9
15.25    3.75    9   0   9   18.79    3.71  -10   0  -9    3.97
2.45   10   0   9    1.60    2.30   10   0   9    4.05    2.51    8
-1  -9   11.15    4.68   -8   1   9   28.94    4.48    7  -1  -9
50.52    7.36   -7   1   9   55.48    5.52    6  -1  -9   48.92
6.64   -6   1   9   43.34    4.66    5  -1  -9   11.94    3.90    5
-1  -9   11.43    2.53   -5   1   9   14.44    2.79   -5   1   9
13.48    2.78    4  -1  -9   24.49    4.55    4  -1  -9   27.65
3.14   -4   1   9   27.17    3.65   -4   1   9   25.44    3.26    3
-1  -9    6.43    2.74    3  -1  -9   14.43    2.25   -3   1   9
13.41    2.30   -3   1   9   14.35    2.82    2  -1  -9   10.00
2.71    2  -1  -9   18.60    2.27   -2   1   9   12.12    2.60   -2
1   9   14.09    2.26    1  -1  -9    4.93    2.14   -1   1   9
5.66    1.60   -1   1   9    5.19    1.79    0  -1  -9   -0.31    1.16
0   1   9    0.26    1.05    0   1   9   -0.36    0.89   -1  -1  -9
26.20    3.50    1   1   9   25.30    3.40    1   1   9   23.61
3.36   -2  -1  -9   76.03    5.43   -2  -1  -9   84.20    5.61    2
1   9   73.63    5.27    2   1   9   70.03    5.16   -3  -1  -9
93.77    6.11   -3  -1  -9  101.02    6.32    3   1   9   95.79
5.06    3   1   9  101.95    6.22    3   1   9   93.29    6.14   -4
-1  -9   81.59    5.74   -4  -1  -9   78.05    5.70    4   1   9
83.73    4.92    4   1   9   84.13    5.71    4   1   9   80.54
5.66   -5  -1  -9  117.60    7.25   -5  -1  -9  123.58    7.43    5
1   9  122.47    6.51    5   1   9  131.32    7.45    5   1   9
121.87    7.23   -6  -1  -9  108.41    7.14   -6  -1  -9  108.20
7.19    6   1   9  107.42    6.41    6   1   9  113.46    7.06    6
1   9  110.85    7.14   -7  -1  -9   61.66    5.86   -7  -1  -9
73.25    5.85    7   1   9   69.12    6.08    7   1   9   64.49
5.06   -8  -1  -9  117.66    7.95   -8  -1  -9   98.29    7.61    8
1   9  110.87    7.18    8   1   9  112.74    7.85    9   1   9
89.59    6.86    9   1   9   91.96    7.31   10   1   9   75.36
7.03   10   1   9   68.62    7.07    8  -2  -9   20.60    5.35   -8
2   9   13.40    3.30    7  -2  -9   24.69    5.50   -7   2   9
27.57    4.16    6  -2  -9   11.48    4.00   -6   2   9    2.13
1.76    5  -2  -9    6.34    3.32   -5   2   9    6.57    2.19   -5
2   9   11.95    2.74    4  -2  -9    4.41    2.51    4  -2  -9
1.83    1.48   -4   2   9    4.67    1.77   -4   2   9    1.37    1.43
3  -2  -9   21.61    3.95    3  -2  -9   19.11    2.52   -3   2   9
17.55    2.57   -3   2   9   15.69    2.78    2  -2  -9    6.55
2.40    2  -2  -9    1.76    1.32   -2   2   9    4.04    1.54   -2
2   9    5.97    1.88    1  -2  -9    0.26    1.39   -1   2   9
0.00    1.00    0  -2  -9    0.70    1.49    0   2   9    0.27    1.02
-1  -2  -9    0.60    1.35   -1  -2  -9    0.87    1.27    1   2   9
1.24    1.16    1   2   9    0.33    1.39   -2  -2  -9   -0.60    1.07
-2  -2  -9   -0.82    0.92    2   2   9   -0.34    0.88    2   2   9
-0.38    1.25    2   2   9    0.62    0.95   -3  -2  -9    0.91
1.27   -3  -2  -9   -0.30    0.99    3   2   9    3.09    1.77    3
2   9    1.71    1.11    3   2   9   -0.58    0.93   -4  -2  -9
0.80    1.42   -4  -2  -9    2.80    1.65    4   2   9    3.70    1.78
4   2   9    1.47    1.23    4   2   9    4.04    1.71   -5  -2  -9
-0.33    1.38   -5  -2  -9   -1.99    0.92    5   2   9    0.22
1.08    5   2   9    0.94    1.54    5   2   9   -1.19    1.10   -6
-2  -9   -0.32    1.50   -6  -2  -9   -0.32    1.38    6   2   9
-0.37    1.18    6   2   9    0.99    1.57   -7  -2  -9    2.50
1.99   -7  -2  -9    2.77    1.93    7   2   9    3.02    2.06    7
2   9    2.15    1.65   -8  -2  -9    1.81    1.86    8   2   9
-0.18    1.52    8   2   9    1.38    1.82    9   2   9   -1.23
1.55    9   2   9    0.45    1.96   10   2   9   -0.66    2.24   10
2   9   -0.39    1.93    8  -3  -9   78.81    9.20   -8   3   9
91.89    6.93    7  -3  -9   67.51    8.36   -7   3   9   91.14
6.63    6  -3  -9   99.46    9.29   -6   3   9  111.50    6.99    5
-3  -9   69.09    7.35   -5   3   9   69.75    5.08    4  -3  -9
71.93    4.72    4  -3  -9   66.96    6.79   -4   3   9   68.24
5.01   -4   3   9   65.77    4.68    3  -3  -9  122.45    8.31   -3
3   9  138.89    7.41    2  -3  -9   50.49    3.56    2  -3  -9
45.51    5.01   -2   3   9   52.62    4.58    1  -3  -9   31.65
4.15    1  -3  -9   33.76    2.84   -1   3   9   34.24    3.79    0
-3  -9   16.46    3.09    0  -3  -9   21.86    3.31    0   3   9
20.70    3.36    0   3   9   22.73    3.23   -1  -3  -9    4.04
1.79   -1  -3  -9    4.68    1.85    1   3   9    4.67    1.75    1
3   9    6.84    1.63    1   3   9    5.48    2.16   -2  -3  -9
1.27    1.42   -2  -3  -9    1.00    1.31    2   3   9    0.89    1.39
2   3   9    0.83    1.22    2   3   9    0.65    0.94   -3  -3  -9
-0.09    1.17   -3  -3  -9    0.90    1.35    3   3   9    1.24
1.12    3   3   9    1.01    1.44    3   3   9    0.46    1.19   -4
-3  -9   42.60    4.56   -4  -3  -9   39.49    4.45    4   3   9
41.63    3.77    4   3   9   38.39    4.29    4   3   9   37.47
4.23   -5  -3  -9   80.21    6.05   -5  -3  -9   83.61    6.19    5
3   9   82.01    6.00    5   3   9   90.72    5.59    5   3   9
80.93    5.92   -6  -3  -9   33.58    4.55   -6  -3  -9   33.79
4.53    6   3   9   42.27    4.30    6   3   9   36.89    4.58   -7
-3  -9   28.76    4.54   -7  -3  -9   36.92    4.90    7   3   9
34.41    4.22    7   3   9   33.66    4.77   -8  -3  -9   35.95
5.17    8   3   9   29.75    4.34    8   3   9   31.41    4.79    9
3   9   73.34    6.54    9   3   9   67.53    6.85   10   3   9
63.33    6.57   10   3   9   65.01    7.21    7  -4  -9   -0.61
3.02   -7   4   9   -1.00    1.78    6  -4  -9   -0.04    2.76   -6
4   9    4.81    2.17    5  -4  -9    0.68    2.68    4  -4  -9
2.23    2.42    3  -4  -9    3.18    1.65    3  -4  -9    3.91    2.43
-3   4   9    5.20    1.89    2  -4  -9    0.38    1.30    2  -4  -9
1.70    1.80    2  -4  -9    3.43    1.68   -2   4   9    4.84    1.79
1  -4  -9    0.23    1.17    1  -4  -9    3.03    1.84    1  -4  -9
-1.58    0.90   -1   4   9    0.36    1.16   -1   4   9   -0.59
0.86    0  -4  -9    3.22    1.81    0  -4  -9    5.51    1.96    0
4   9    7.11    2.04    0   4   9    6.13    1.69    0   4   9
6.49    2.24   -1  -4  -9    8.02    2.42   -1  -4  -9    6.61    2.08
1   4   9   10.08    2.65    1   4   9    8.93    2.20    1   4   9
4.69    1.53   -2  -4  -9    5.54    2.06   -2  -4  -9    5.05    1.94
2   4   9    4.90    1.58    2   4   9    4.42    1.82    2   4   9
4.39    1.92   -3  -4  -9    0.69    1.45   -3  -4  -9   -0.53    1.22
3   4   9    1.74    1.33    3   4   9    1.18    1.56    3   4   9
1.43    1.18   -4  -4  -9    1.27    1.46   -4  -4  -9   -1.24    1.00
4   4   9    1.27    1.37    4   4   9    0.38    0.98    4   4   9
-0.32    1.24   -5  -4  -9   -0.24    1.39   -5  -4  -9    1.57
1.71    5   4   9    2.24    1.66    5   4   9    2.36    1.48   -6
-4  -9    0.78    1.56   -6  -4  -9    5.18    2.23    6   4   9
5.61    2.03    6   4   9    2.23    1.71   -7  -4  -9    2.27    1.78
7   4   9    5.41    2.11    7   4   9    7.40    2.58   -8  -4  -9
3.94    2.37    8   4   9    6.23    2.67    8   4   9    9.87    2.85
9   4   9    7.55    2.92    9   4   9    9.36    3.22   10   4   9
6.74    3.07   10   4   9    8.73    3.33    7  -5  -9   80.96    9.24
6  -5  -9   91.12    9.01    5  -5  -9  122.97    9.53    4  -5  -9
100.08    7.89    3  -5  -9   39.47    3.67    3  -5  -9   43.72
5.47    2  -5  -9   86.49    5.05    2  -5  -9   89.26    6.67    2
-5  -9   94.18    5.92   -2   5   9   80.31    5.47   -2   5   9
78.19    5.25    1  -5  -9  113.14    7.29    1  -5  -9  118.83
6.93    1  -5  -9  118.64    5.67   -1   5   9  117.33    6.38   -1
5   9  107.54    6.56    0  -5  -9   89.08    4.69    0  -5  -9
85.92    5.99    0  -5  -9  106.82    6.72    0   5   9   91.16
5.49    0   5   9   92.07    5.97    0   5   9   91.12    6.25   -1
-5  -9   43.34    4.51   -1  -5  -9   42.04    4.52    1   5   9
42.67    3.85    1   5   9   41.57    4.27    1   5   9   34.29
4.23   -2  -5  -9   13.74    2.94   -2  -5  -9   11.74    2.72    2
5   9   10.17    2.21    2   5   9   12.60    2.83    2   5   9
12.05    2.60   -3  -5  -9   22.43    3.63   -3  -5  -9   13.53
2.92    3   5   9   16.00    3.28    3   5   9   18.99    3.26    3
5   9   20.03    3.02   -4  -5  -9    8.22    2.42   -4  -5  -9
9.28    2.58    4   5   9    7.45    2.09    4   5   9    7.56    2.40
-5  -5  -9    0.28    1.22   -5  -5  -9    0.02    1.54    5   5   9
2.14    1.74    5   5   9    0.64    1.40   -6  -5  -9    7.21    2.53
6   5   9    3.27    1.85    6   5   9    3.96    2.17   -7  -5  -9
5.19    2.56    7   5   9    4.95    2.38    7   5   9    5.32    2.20
-8  -5  -9   23.59    4.44    8   5   9   19.63    4.02    8   5   9
13.99    3.34   -9  -5  -9   21.84    4.54    9   5   9   13.71
3.60    9   5   9    9.03    3.01   10   5   9   13.80    3.66   10
5   9   13.19    3.82    6  -6  -9    6.11    3.77    5  -6  -9
12.18    4.12    4  -6  -9   33.10    5.50    3  -6  -9   18.54
4.16   -3   6   9   19.84    3.43    2  -6  -9   49.55    5.51    2
-6  -9   53.14    4.19   -2   6   9   49.47    4.68    1  -6  -9
24.27    2.87    1  -6  -9   22.65    3.84    1  -6  -9   26.09
3.62   -1   6   9   19.56    3.13   -1   6   9   20.29    3.22    0
-6  -9   35.25    3.09    0  -6  -9   28.94    4.04    0  -6  -9
27.69    3.76    0   6   9   22.33    3.39    0   6   9   25.84
3.41   -1  -6  -9   22.63    2.49   -1  -6  -9   27.28    3.92   -1
-6  -9   27.45    3.83    1   6   9   26.08    3.92    1   6   9
26.55    3.72    1   6   9   23.64    3.26   -2  -6  -9   15.71
3.20   -2  -6  -9   20.17    3.64    2   6   9   19.69    3.55    2
6   9   18.84    3.26    2   6   9   20.17    3.12   -3  -6  -9
25.46    3.85   -3  -6  -9   21.21    3.70    3   6   9   24.45
3.36    3   6   9   29.14    4.11   -4  -6  -9   18.23    3.62   -4
-6  -9   16.07    3.31    4   6   9   11.41    2.55    4   6   9
12.32    2.95   -5  -6  -9    0.15    1.65   -5  -6  -9    0.68
1.40    5   6   9   -0.14    1.34    5   6   9    1.12    1.64   -6
-6  -9    1.91    1.89    6   6   9    3.38    2.12    6   6   9
-0.29    1.28   -7  -6  -9    3.67    2.30    7   6   9    0.59
1.53    7   6   9    4.78    2.35   -8  -6  -9    1.05    1.76    8
6   9    3.58    2.10    8   6   9    0.04    1.80   -9  -6  -9
3.18    2.21    9   6   9    4.98    2.70    9   6   9    2.92    2.48
6  -7  -9   30.56    6.28    5  -7  -9   49.75    7.13    4  -7  -9
51.19    6.43   -4   7   9   40.73    5.10    3  -7  -9   81.11
7.16   -3   7   9   52.95    5.34    2  -7  -9   69.62    6.47   -2
7   9   46.83    4.89    1  -7  -9   59.74    5.70    1  -7  -9
47.26    3.99   -1   7   9   55.07    5.06    0  -7  -9   63.73
4.11    0  -7  -9   54.71    5.42    0  -7  -9   57.11    5.16    0
7   9   56.50    5.10    0   7   9   60.94    4.97   -1  -7  -9
47.77    5.06   -1  -7  -9   41.82    4.63   -1  -7  -9   38.19
3.37    1   7   9   46.70    4.70    1   7   9   38.52    4.26    1
7   9   49.27    5.10   -2  -7  -9   40.75    4.77   -2  -7  -9
36.39    4.54    2   7   9   48.28    5.08    2   7   9   42.51
4.40   -3  -7  -9   36.29    4.71   -3  -7  -9   38.42    4.60    3
7   9   42.17    4.43    3   7   9   41.13    4.83   -4  -7  -9
34.71    4.50    4   7   9   19.47    3.38    4   7   9   23.94
3.83   -5  -7  -9   12.68    3.11    5   7   9   18.14    3.38    5
7   9   14.76    3.34   -6  -7  -9   10.53    2.94    6   7   9
8.11    2.66    6   7   9    3.27    1.94   -7  -7  -9    2.07    1.96
7   7   9    0.43    1.55    7   7   9    1.64    1.88   -8  -7  -9
0.00    1.87    8   7   9    1.02    2.12    8   7   9   -1.20    1.58
-9  -7  -9   -0.21    1.92    9   7   9   -1.54    1.69    9   7   9
-0.02    1.92    5  -8  -9   19.30    5.09    4  -8  -9   48.29
6.53   -4   8   9   36.26    5.18    3  -8  -9   61.26    6.63   -3
8   9   59.76    5.91    2  -8  -9   40.37    5.32   -2   8   9
45.16    5.08    1  -8  -9   59.75    5.86   -1   8   9   56.55
5.40    0  -8  -9   93.04    6.81    0   8   9   69.18    6.02   -1
-8  -9   66.65    5.87   -1  -8  -9   72.11    4.61   -1  -8  -9
77.52    6.08    1   8   9   65.23    5.72    1   8   9   69.42
6.08   -2  -8  -9   97.05    5.15   -2  -8  -9   81.93    6.46   -2
-8  -9  101.56    6.96    2   8   9   87.62    6.54    2   8   9
76.96    5.93   -3  -8  -9   45.38    5.01    3   8   9   33.99
4.53    3   8   9   30.88    4.22   -4  -8  -9   39.03    4.81    4
8   9   35.77    4.64    4   8   9   39.86    4.65   -5  -8  -9
37.94    4.95    5   8   9   44.92    5.11    5   8   9   53.98
5.61   -6  -8  -9   37.46    5.06    6   8   9   39.56    5.19    6
8   9   30.96    4.60   -7  -8  -9   15.10    3.70    7   8   9
13.69    3.60    7   8   9   15.63    3.45   -8  -8  -9    0.46
1.98    8   8   9   -1.20    1.77    8   8   9   -0.55    1.74   -4
9   9   17.45    3.96   -3   9   9   21.49    4.21    2  -9  -9
12.86    3.51   -2   9   9    7.49    2.62    1  -9  -9   19.02
3.95   -1   9   9   12.66    3.19    0  -9  -9    2.56    2.01    0
9   9    4.54    2.40   -1  -9  -9   16.74    3.48    1   9   9
21.49    3.83    1   9   9   10.01    2.86   -2  -9  -9   10.98
2.92    2   9   9   13.07    2.97    2   9   9   17.29    3.69   -3
-9  -9    6.17    2.46    3   9   9   11.34    3.05    3   9   9
7.63    2.56   -4  -9  -9   20.39    3.80    4   9   9   17.92    3.72
4   9   9   18.30    3.60   -5  -9  -9    8.01    2.62    5   9   9
2.98    2.11    5   9   9    3.38    2.04   -6  -9  -9    2.21    1.95
6   9   9   -0.51    1.45    6   9   9    2.39    2.03   -7  -9  -9
-0.29    1.88    7   9   9   -0.54    1.74    7   9   9   -0.80
1.61   -8  -9  -9    0.91    2.28    8   9   9   -0.15    2.10   -3
10   9   11.41    3.52   -2  10   9   24.16    4.57   -1  10   9
35.63    5.15    0  10   9   46.29    5.65   -1 -10  -9   73.86
6.43    1  10   9   67.65    6.49   -2 -10  -9   50.78    5.51    2
10   9   48.41    5.55    2  10   9   55.94    5.78   -3 -10  -9
94.20    7.10    3  10   9   91.50    7.07   -4 -10  -9   76.28
6.75    4  10   9   91.31    7.03    4  10   9   71.96    6.73   -5
-10  -9   79.44    6.92    5  10   9   70.87    6.77    5  10   9
66.86    6.49   -6 -10  -9   72.96    6.84    6  10   9   59.60
6.39    6  10   9   60.08    6.55   -7 -10  -9   40.18    5.67    7
10   9   54.81    6.34   -1  11   9   -0.32    2.04    0  11   9
3.14    2.35    1  11   9    0.48    2.06    2  11   9   -0.64    1.54
3  11   9    1.05    2.10   -4 -11  -9    2.37    2.25    4  11   9
1.88    2.47    4  11   9    3.33    2.56   -5 -11  -9    1.11    1.98
5  11   9    2.56    2.55    5  11   9    0.64    1.90    3   9 -10
14.42    4.10    3   9 -10    7.12    2.99   -3  -9  10    6.24
2.70    2   9 -10   14.79    4.14    2   9 -10   14.05    3.56   -2
-9  10   15.28    3.64    1   9 -10    6.74    2.75    1   9 -10
8.46    3.51   -1  -9  10   11.66    3.27    0   9 -10   25.43    5.27
0   9 -10   32.07    4.86    0  -9  10   30.43    4.76   -1   9 -10
31.56    4.87   -1   9 -10   23.29    5.28    1  -9  10   18.20
3.92   -2   9 -10   34.45    5.09   -2   9 -10   31.93    5.92    2
-9  10   32.35    4.99    4   8 -10    3.93    2.50   -4  -8  10
2.95    2.10    3   8 -10    6.49    3.06   -3  -8  10    0.25    1.61
2   8 -10    4.28    2.32    2   8 -10    2.74    2.51   -2  -8  10
7.11    2.65    1   8 -10   14.77    3.75    1   8 -10   16.53    3.47
-1  -8  10    9.71    2.96    0   8 -10   32.71    4.64    0   8 -10
30.11    5.44    0  -8  10   35.83    4.90   -1   8 -10   42.23
6.13   -1   8 -10   32.00    4.55    1  -8  10   49.24    5.56   -2
8 -10   64.15    7.59   -2   8 -10   75.73    6.60    2  -8  10
78.26    6.80   -3   8 -10   64.61    7.62   -3   8 -10   61.12
6.19    3  -8  10   63.94    6.46   -4   8 -10   40.97    6.38   -4
8 -10   49.90    5.95    4  -8  10   52.22    6.03   -5  -7  10
0.40    1.79    4   7 -10    0.91    1.89   -4  -7  10   -0.48    1.39
3   7 -10    1.28    1.96   -3  -7  10   -0.50    1.48    2   7 -10
3.56    2.26   -2  -7  10    1.72    1.79    1   7 -10    9.79    3.11
1   7 -10   11.02    2.78   -1  -7  10    8.62    2.54    0   7 -10
-0.48    1.65    0   7 -10    1.72    1.91    0  -7  10    1.20
1.77   -1   7 -10    0.32    1.65   -1   7 -10    0.08    1.90    1
-7  10   -1.69    1.31   -2   7 -10    2.05    1.95   -2   7 -10
0.28    1.95    2  -7  10    1.79    1.81   -3   7 -10    3.43    2.30
-3   7 -10    1.37    2.27    3  -7  10    5.05    2.42   -4   7 -10
4.82    2.63   -4   7 -10    8.33    3.48    4  -7  10    4.75    2.27
-5   7 -10    5.01    2.50   -5   7 -10    7.94    2.97   -5   7 -10
10.34    3.77    5  -7  10    4.68    2.60   -6  -6  10   41.64
5.47   -5  -6  10   20.88    3.85    4   6 -10   45.42    5.22   -4
-6  10   31.04    4.41    3   6 -10   16.50    3.49   -3  -6  10
18.14    3.43    2   6 -10    4.71    2.25   -2  -6  10    4.84
2.15    1   6 -10    1.33    1.98   -1  -6  10    2.67    1.83    0
6 -10    4.73    2.44    0  -6  10    1.34    1.63   -1   6 -10
7.74    2.70   -1   6 -10   12.02    2.83    1  -6  10    8.30    2.54
1  -6  10   10.80    2.89   -2   6 -10   13.34    2.90   -2   6 -10
7.18    2.68    2  -6  10   13.67    3.06    2  -6  10   13.22    2.97
-3   6 -10   40.07    4.72   -3   6 -10   49.26    6.08    3  -6  10
51.71    5.33   -4   6 -10   44.36    5.03   -4   6 -10   54.14
6.43    4  -6  10   54.05    5.56   -5   6 -10   75.15    6.68   -5
6 -10   88.52    8.16   -5   6 -10   78.45    7.05    5  -6  10
99.03    6.99    5  -6  10   87.98    6.65   -6   6 -10   48.67
5.60   -6   6 -10   51.62    5.96   -6   6 -10   45.87    6.32    6
-6  10   50.53    5.69    6  -6  10   45.53    5.46    7   5 -10
7.42    3.79   -7  -5  10    5.11    2.65    6   5 -10   -1.98    2.78
-6  -5  10   -0.09    1.42    5   5 -10   -1.06    1.37    5   5 -10
0.28    2.65   -5  -5  10    1.44    1.64    4   5 -10   -1.44    2.28
4   5 -10    0.89    1.67   -4  -5  10    3.26    1.97    3   5 -10
0.40    1.59   -3  -5  10    0.16    1.49    2   5 -10    1.98    1.81
-2  -5  10    0.97    1.53    1   5 -10    2.38    1.82   -1  -5  10
2.46    1.53    0   5 -10    3.07    1.87    0  -5  10    0.32    1.57
0  -5  10    2.17    1.77   -1   5 -10   -0.78    1.42    1  -5  10
-0.56    1.25    1  -5  10   -0.81    1.30   -2   5 -10    0.13
1.52    2  -5  10   -0.49    1.32    2  -5  10   -0.72    1.42   -3
5 -10    1.14    1.62   -3   5 -10    1.50    1.83    3  -5  10
2.45    1.86   -4   5 -10    5.66    2.54   -4   5 -10    5.38    2.24
4  -5  10    4.77    2.12   -5   5 -10    3.18    2.04   -5   5 -10
3.69    2.35   -5   5 -10    3.38    2.02    5  -5  10    4.90    2.39
5  -5  10    0.13    1.67   -6   5 -10    0.49    1.94   -6   5 -10
-0.85    1.84   -6   5 -10   -0.40    2.12    6  -5  10   -0.61
1.73    6  -5  10   -0.42    1.86   -7   5 -10    1.08    2.08   -7
5 -10   -0.42    1.89    7  -5  10    2.12    2.26    7  -5  10
0.78    1.91    7   4 -10  102.54    9.79   -7  -4  10  117.24    8.05
6   4 -10   82.82    8.46   -6  -4  10  103.31    7.23    5   4 -10
86.10    8.03    5   4 -10   84.67    6.21   -5  -4  10   75.60
6.28    4   4 -10   54.52    6.30    4   4 -10   54.24    4.67    4
4 -10   51.59    5.04   -4  -4  10   43.98    4.92    3   4 -10
75.30    5.68    3   4 -10   76.70    6.87   -3  -4  10   62.05
5.42    2   4 -10   69.35    5.53    2   4 -10   69.87    6.25   -2
-4  10   74.41    5.42    1   4 -10   57.51    5.20    1   4 -10
50.36    5.12   -1  -4  10   48.57    4.69   -1  -4  10   46.18
5.23    0   4 -10   14.89    3.07    0  -4  10   13.68    2.75    0
-4  10   19.41    3.57   -1   4 -10    3.97    2.03    1  -4  10
3.38    1.84    1  -4  10    5.96    2.21   -2   4 -10    6.17    2.32
2  -4  10    0.00    1.23    2  -4  10    1.06    1.63   -3   4 -10
0.35    1.51    3  -4  10   -1.20    1.15    3  -4  10    0.31    1.47
-4   4 -10    5.64    2.42    4  -4  10    7.51    2.32   -5   4 -10
27.56    4.49    5  -4  10   37.61    4.45   -6   4 -10   44.13
5.63   -6   4 -10   43.74    5.11    6  -4  10   55.64    5.41   -7
4 -10    7.63    2.73   -7   4 -10   11.25    3.01    7  -4  10
7.04    2.54   -8   4 -10   40.72    5.23    8  -4  10   42.62    5.22
7   3 -10    3.87    3.67   -7  -3  10    5.12    2.49    6   3 -10
7.34    3.93   -6  -3  10   15.21    3.33    5   3 -10   15.89    4.27
-5  -3  10   24.93    3.83    4   3 -10    3.50    2.08    4   3 -10
9.46    3.48   -4  -3  10    6.22    2.08    3   3 -10    0.44    2.25
-3  -3  10    2.53    1.64    2   3 -10    1.06    2.16   -2  -3  10
0.52    1.38   -2  -3  10    2.51    1.66    1   3 -10   10.21    2.76
-1  -3  10    9.76    2.60   -1  -3  10   13.66    2.70    0   3 -10
23.36    3.52    0  -3  10   21.04    3.54    0  -3  10   16.95
2.95   -1   3 -10    5.07    2.12   -1   3 -10   11.80    2.62    1
-3  10    7.03    2.25    1  -3  10    8.55    2.54   -2   3 -10
6.04    2.17    2  -3  10    1.95    1.54    2  -3  10    0.05    1.33
-3   3 -10   -0.54    1.48    3  -3  10    1.50    1.49    3  -3  10
3.00    1.67   -4   3 -10    1.15    1.73   -4   3 -10    0.85    1.48
4  -3  10    2.03    1.63    4  -3  10   -1.04    1.26   -5   3 -10
5.05    2.37   -5   3 -10    5.47    2.10    5  -3  10    1.91    1.72
-6   3 -10   26.69    4.30   -6   3 -10   22.59    3.77    6  -3  10
21.75    3.57   -7   3 -10    1.52    1.78    7   2 -10   38.51
6.60   -7  -2  10   39.06    5.03    6   2 -10   67.38    7.86   -6
-2  10   65.97    5.94    5   2 -10   79.22    7.86   -5  -2  10
71.10    5.86    4   2 -10   77.93    7.41    4   2 -10   87.04
5.52   -4  -2  10   81.66    5.76    3   2 -10  101.14    7.60   -3
-2  10  107.06    7.17   -3  -2  10   93.24    6.02    2   2 -10
55.72    5.48   -2  -2  10   50.44    5.19   -2  -2  10   47.16
4.32    1   2 -10   67.38    5.55   -1  -2  10   74.40    5.72   -1
-2  10   82.15    5.30    0   2 -10   87.68    6.07    0  -2  10
95.51    6.47    0  -2  10   92.56    5.62   -1   2 -10   49.76
4.68    1  -2  10   45.31    4.24    1  -2  10   40.32    4.48   -2
2 -10   13.44    2.70    2  -2  10   15.91    3.10    2  -2  10
20.47    3.21    2  -2  10   13.20    2.59   -3   2 -10    9.89
2.58   -3   2 -10    9.84    2.49    3  -2  10   14.30    2.94    3
-2  10   17.47    2.88    3  -2  10   12.12    2.82   -4   2 -10
0.92    1.52   -4   2 -10    4.55    1.89   -4   2 -10    1.54    1.53
4  -2  10    0.78    1.32    4  -2  10    2.21    1.73    4  -2  10
0.68    1.35   -5   2 -10    2.54    1.88   -5   2 -10    5.31    2.07
-5   2 -10    5.60    2.05    5  -2  10    6.87    2.25   -6   2 -10
-0.86    1.50    7   1 -10   25.51    5.97   -7  -1  10   26.44
4.30    6   1 -10   18.89    5.02   -6  -1  10   22.83    3.75    5
1 -10   31.60    5.58   -5  -1  10   25.11    3.73    4   1 -10
46.24    5.98    4   1 -10   53.00    4.42   -4  -1  10   43.66
4.43   -4  -1  10   47.67    5.19    3   1 -10   48.75    3.81    3
1 -10   40.64    5.33   -3  -1  10   44.28    4.18   -3  -1  10
51.07    5.09    2   1 -10   52.47    5.43   -2  -1  10   49.05
4.33   -2  -1  10   57.73    5.34    1   1 -10   89.48    6.51   -1
-1  10   94.54    6.44   -1  -1  10   98.81    5.66    0   1 -10
108.02    6.78    0  -1  10  108.14    5.99    0  -1  10  108.96
6.84   -1   1 -10   63.59    5.09    1  -1  10   65.68    4.55    1
-1  10   64.84    5.18   -2   1 -10   23.90    3.54    2  -1  10
26.51    3.81    2  -1  10   29.19    3.79   -3   1 -10   28.86
3.78   -3   1 -10   26.12    3.82    3  -1  10   21.87    3.38    3
-1  10   25.56    3.72   -4   1 -10   42.10    4.45   -4   1 -10
38.48    4.43    4  -1  10   34.10    4.12    4  -1  10   35.94
4.27   -5   1 -10    2.16    1.68   -5   1 -10    4.88    2.11   -5
1 -10    2.39    1.72    5  -1  10    6.45    2.28    5  -1  10
3.57    1.89   -6   1 -10   -2.09    1.43   -6   1 -10    1.81    1.70
-6   1 -10    1.31    1.58    6  -1  10    0.33    1.58    6  -1  10
-0.89    1.50   -7   1 -10   -0.95    1.46    7  -1  10   -0.67
1.80   -8   1 -10    0.88    2.00   -9   1 -10   13.02    3.41    9
-1  10   13.79    3.59    7   0 -10   19.04    5.26   -7   0  10
5.65    2.49    6   0 -10   22.57    5.30   -6   0  10   25.19    3.93
5   0 -10   26.66    5.32   -5   0  10   21.98    3.46    4   0 -10
18.53    4.41    4   0 -10   24.60    3.21   -4   0  10   18.33
3.38   -4   0  10   19.22    3.13    3   0 -10    9.89    2.19    3
0 -10    8.09    3.04   -3   0  10    7.13    2.33   -3   0  10
8.53    2.14    2   0 -10   76.47    6.23   -2   0  10   80.97    5.00
-2   0  10   84.92    6.01    1   0 -10   35.27    4.35   -1   0  10
35.98    3.51   -1   0  10   45.48    4.62    0   0 -10   25.65
3.78    0   0  10   30.74    3.18    0   0  10   32.99    3.99   -1
0 -10   40.39    4.32    1   0  10   35.57    4.22    1   0  10
37.12    4.18   -2   0 -10   27.38    3.73    2   0  10   26.65
3.77    2   0  10   24.23    3.60   -3   0 -10    8.12    2.31   -3
0 -10    9.07    2.46    3   0  10    7.46    2.22    3   0  10
13.21    2.88   -4   0 -10   30.17    4.09   -4   0 -10   34.63
4.23    4   0  10   39.49    4.41    4   0  10   33.89    4.17   -5
0 -10   -0.14    1.40   -5   0 -10    0.09    1.32    5   0  10
-0.83    1.25    5   0  10   -0.38    1.36   -6   0 -10    4.44
1.97   -6   0 -10    2.23    1.91   -6   0 -10    2.58    1.82    6
0  10    4.37    2.11    6   0  10    2.64    1.99   -7   0 -10
2.17    2.19   -7   0 -10    2.43    1.96    7   0  10    2.63    2.10
7   0  10    2.54    1.90   -8   0 -10    0.34    1.76    8   0  10
-0.39    1.76    8   0  10    5.92    2.68   -9   0 -10    0.01
1.90   -9   0 -10    1.15    2.04    9   0  10   -0.44    1.98    9
0  10    1.74    2.33    7  -1 -10    7.61    4.02   -7   1  10
12.70    3.29    6  -1 -10   18.76    5.10   -6   1  10   18.92
3.51    5  -1 -10   32.79    5.73   -5   1  10   37.58    4.63   -5
1  10   31.88    3.98    4  -1 -10   60.84    6.62    4  -1 -10
62.27    4.51   -4   1  10   62.25    4.70   -4   1  10   64.51
5.61    3  -1 -10  107.39    5.56    3  -1 -10  100.18    7.43   -3
1  10  100.28    6.62   -3   1  10   92.86    5.63    2  -1 -10
95.63    7.00   -2   1  10  107.47    6.58   -2   1  10   81.75
5.10    1  -1 -10   97.80    6.74   -1   1  10   88.89    6.11    0
-1 -10  153.14    8.39    0   1  10  131.10    7.76   -1  -1 -10
187.99    9.63    1   1  10  194.93    9.67    1   1  10  198.14
9.61   -2  -1 -10  150.34    8.48   -2  -1 -10  168.52    8.89    2
1  10  160.47    8.61    2   1  10  150.45    8.39   -3  -1 -10
83.35    5.99   -3  -1 -10   77.43    5.81    3   1  10   83.80
5.91    3   1  10   81.18    5.84   -4  -1 -10   82.85    6.14   -4
-1 -10   93.06    6.53    4   1  10   91.35    6.30    4   1  10
84.93    6.10   -5  -1 -10   40.08    4.80   -5  -1 -10   49.96
5.05    5   1  10   35.95    4.39    5   1  10   47.18    4.88   -6
-1 -10   33.63    4.56   -6  -1 -10   26.84    4.21    6   1  10
36.48    4.07    6   1  10   31.74    4.34    6   1  10   45.36
4.94   -7  -1 -10   16.10    3.55    7   1  10   11.88    3.16    7
1  10   16.94    3.26   -8  -1 -10   12.84    3.39    8   1  10
24.13    4.30    8   1  10   13.10    3.13   -9  -1 -10    4.36
2.64    9   1  10    8.04    3.15    9   1  10    2.41    2.33    7
-2 -10   -1.67    3.22   -7   2  10    6.19    2.46    6  -2 -10
-0.75    2.42   -6   2  10    0.70    1.63    5  -2 -10    5.58
3.13   -5   2  10    1.12    1.58    4  -2 -10    2.88    2.66   -4
2  10    2.29    1.66   -4   2  10    3.23    1.65    3  -2 -10
14.56    3.52    3  -2 -10   11.43    2.34   -3   2  10   12.39
2.72    2  -2 -10    0.71    1.74    2  -2 -10    0.26    1.30   -2
2  10    2.14    1.55    1  -2 -10    1.55    1.63   -1   2  10
-0.47    1.11    0  -2 -10    6.92    2.39    0   2  10    7.49
2.19   -1  -2 -10   -0.41    1.31   -1  -2 -10    0.01    1.07    1
2  10    0.82    1.27    1   2  10    0.16    1.39   -2  -2 -10
-0.17    1.16   -2  -2 -10   -0.60    1.10    2   2  10    2.09
1.51    2   2  10    0.87    1.54   -3  -2 -10   -0.13    1.37   -3
-2 -10    0.09    1.30    3   2  10    0.48    1.28    3   2  10
1.11    1.61   -4  -2 -10    2.11    1.83   -4  -2 -10    5.80    2.19
4   2  10    3.49    1.83    4   2  10    0.76    1.25    4   2  10
0.71    1.57   -5  -2 -10    1.92    1.89   -5  -2 -10    4.69    2.15
5   2  10    4.85    2.12    5   2  10    5.52    2.13    5   2  10
5.25    1.83   -6  -2 -10    0.02    1.67   -6  -2 -10    1.86    1.91
6   2  10    1.45    1.61    6   2  10    0.91    1.78    6   2  10
2.65    1.86   -7  -2 -10    1.13    1.72    7   2  10   -0.02    1.42
7   2  10    0.52    1.79   -8  -2 -10    0.02    1.73    8   2  10
-0.16    1.77    8   2  10    0.03    1.57   -9  -2 -10   -0.21
1.90    9   2  10   -0.62    2.13    9   2  10   -0.28    1.89    7
-3 -10    4.78    3.91   -7   3  10    9.54    2.92    6  -3 -10
0.54    3.23   -6   3  10   -0.61    1.56    5  -3 -10    8.92    3.81
4  -3 -10    5.16    2.91   -4   3  10    7.87    2.41    3  -3 -10
44.15    5.67    3  -3 -10   41.32    3.83   -3   3  10   58.81
5.20    2  -3 -10   54.86    4.00    2  -3 -10   61.90    6.01   -2
3  10   58.92    5.24    1  -3 -10   46.49    5.09   -1   3  10
52.98    4.87    0  -3 -10   85.87    6.09    0  -3 -10   72.74
6.22    0   3  10   82.05    5.81   -1  -3 -10  130.57    7.78   -1
-3 -10  139.99    8.19    1   3  10  130.95    7.92    1   3  10
140.67    7.89   -2  -3 -10  138.67    8.05   -2  -3 -10  126.24
7.90    2   3  10  136.99    7.86    2   3  10  144.90    8.20   -3
-3 -10  136.21    8.15   -3  -3 -10  130.02    8.01    3   3  10
140.93    6.93    3   3  10  126.76    7.84    3   3  10  135.10
7.95   -4  -3 -10  101.68    7.12   -4  -3 -10  111.16    7.33    4
3  10  114.21    7.28    4   3  10  103.85    6.05    4   3  10
96.39    6.77   -5  -3 -10  212.10   10.80   -5  -3 -10  181.52
10.15    5   3  10  206.32   10.50    5   3  10  204.79    9.41    5
3  10  188.31   10.11   -6  -3 -10   72.82    6.55    6   3  10
78.40    6.23    6   3  10   73.91    5.50   -7  -3 -10   67.58
6.47    7   3  10   54.11    5.82    7   3  10   55.20    5.26   -8
-3 -10   45.08    5.84    8   3  10   51.22    6.02    8   3  10
47.71    5.46   -9  -3 -10   31.40    5.42    9   3  10   37.58
5.63    9   3  10   33.77    4.96    6  -4 -10   -1.54    2.82    5
-4 -10    1.56    2.91    4  -4 -10    0.46    2.28    3  -4 -10
1.03    2.25   -3   4  10   -0.26    1.35    2  -4 -10    0.45    1.29
2  -4 -10    1.50    1.56    2  -4 -10    1.05    1.88   -2   4  10
0.70    1.30    1  -4 -10    1.40    1.34    1  -4 -10    1.34    1.65
1  -4 -10    0.65    1.51   -1   4  10   -0.63    1.10    0  -4 -10
8.98    2.51    0  -4 -10   13.25    3.04    0   4  10    6.03    2.06
-1  -4 -10   12.13    2.82   -1  -4 -10   11.70    2.76    1   4  10
9.77    2.55    1   4  10   11.13    2.89   -2  -4 -10   34.58    4.37
-2  -4 -10   35.18    4.50    2   4  10   37.10    3.56    2   4  10
29.72    4.01    2   4  10   33.54    4.37   -3  -4 -10    5.67
2.31   -3  -4 -10    8.25    2.53    3   4  10    7.93    2.04    3
4  10   11.07    2.79    3   4  10    8.11    2.42   -4  -4 -10
5.32    2.29   -4  -4 -10    4.86    2.04    4   4  10    7.19    2.09
4   4  10    3.51    1.96    4   4  10    4.66    2.15   -5  -4 -10
33.03    4.65    5   4  10   27.30    3.71    5   4  10   29.23
4.28   -6  -4 -10   10.25    3.05    6   4  10   13.11    2.95    6
4  10   17.29    3.64   -7  -4 -10   19.52    4.11    7   4  10
14.90    3.23    7   4  10   18.21    3.86   -8  -4 -10   22.91
4.56    8   4  10   22.67    4.02    8   4  10   21.46    4.13   -9
-4 -10    3.90    2.45    9   4  10    5.73    3.20    9   4  10
7.77    2.87    6  -5 -10   19.73    5.64    5  -5 -10   10.19    4.03
4  -5 -10    0.22    2.25    3  -5 -10    3.79    2.64    2  -5 -10
13.82    2.94    2  -5 -10   15.14    2.63    2  -5 -10   19.80
4.01   -2   5  10   13.41    2.84    1  -5 -10    4.01    1.59    1
-5 -10    4.58    2.17    1  -5 -10    2.81    1.81   -1   5  10
1.40    1.54    0  -5 -10    6.17    2.32    0  -5 -10    3.94    2.00
0   5  10    6.89    2.21   -1  -5 -10   19.59    3.63   -1  -5 -10
27.56    4.16    1   5  10   26.69    4.17    1   5  10   31.72
3.49    1   5  10   31.11    4.08   -2  -5 -10   36.97    4.62   -2
-5 -10   49.65    5.21    2   5  10   44.28    4.11    2   5  10
51.80    5.24    2   5  10   48.03    4.92   -3  -5 -10   66.71
6.04   -3  -5 -10   63.55    5.96    3   5  10   72.34    5.82    3
5  10   64.01    5.78    3   5  10   64.75    4.80   -4  -5 -10
79.30    6.45    4   5  10   91.59    5.99    4   5  10   88.11
6.64   -5  -5 -10   45.56    5.33    5   5  10   46.72    5.20    5
5  10   47.90    4.65   -6  -5 -10  110.41    7.90    6   5  10
124.38    8.20    6   5  10  102.01    6.87   -7  -5 -10   99.65
7.63    7   5  10   80.65    6.25    7   5  10   78.14    7.14   -8
-5 -10   46.51    6.13    8   5  10   51.55    6.16    8   5  10
45.45    5.50   -9  -5 -10   12.24    3.78    9   5  10   21.54
4.67    9   5  10   35.03    5.31    5  -6 -10    4.81    4.07    4
-6 -10    2.27    2.75    3  -6 -10    2.44    2.57    2  -6 -10
2.56    2.47    1  -6 -10    1.08    1.51    1  -6 -10    1.19    1.77
1  -6 -10    1.43    1.73   -1   6  10    1.17    1.63    0  -6 -10
-0.88    1.43    0  -6 -10   -0.51    1.10    0  -6 -10   -0.53
1.51    0   6  10   -0.68    1.18    0   6  10   -0.16    1.27   -1
-6 -10    5.46    2.37   -1  -6 -10    3.30    2.09    1   6  10
4.99    1.91    1   6  10    4.48    2.05    1   6  10    6.95    2.53
-2  -6 -10    3.68    2.12   -2  -6 -10    4.98    2.26    2   6  10
7.82    2.68    2   6  10    1.46    1.62    2   6  10    4.04    1.77
-3  -6 -10   24.50    4.12    3   6  10   24.72    3.52    3   6  10
22.19    3.95    3   6  10   20.29    3.59   -4  -6 -10   37.59
4.91    4   6  10   35.53    4.27    4   6  10   40.97    5.03   -5
-6 -10   23.09    4.11    5   6  10   25.47    4.24    5   6  10
23.31    3.74   -6  -6 -10   28.48    4.51    6   6  10   27.91
4.06    6   6  10   19.02    3.94   -7  -6 -10   46.47    5.86    7
6  10   48.78    5.39    7   6  10   45.72    5.81   -8  -6 -10
51.65    6.46    8   6  10   52.56    5.79    8   6  10   54.61
6.46   -9  -6 -10   45.53    6.45    9   6  10   42.90    6.26    9
6  10   46.26    5.98    5  -7 -10   22.71    5.56    4  -7 -10
36.24    6.04    3  -7 -10   19.43    4.31    2  -7 -10   13.31
3.55    1  -7 -10   -0.42    1.80   -1   7  10    0.20    1.54    0
-7 -10   -2.16    1.34    0  -7 -10    1.86    1.43    0  -7 -10
0.85    1.81    0   7  10   -0.57    1.34    0   7  10    0.65    1.60
-1  -7 -10   -0.69    1.56   -1  -7 -10    1.08    1.37   -1  -7 -10
0.15    1.64    1   7  10    0.93    1.93    1   7  10    1.54    1.49
1   7  10    1.64    1.83   -2  -7 -10   -0.73    1.52    2   7  10
1.24    2.01    2   7  10    1.39    1.43   -3  -7 -10    2.00    1.76
3   7  10    0.73    1.88    3   7  10    2.29    1.59   -4  -7 -10
11.86    3.15    4   7  10   11.27    3.04    4   7  10   10.79
2.82   -5  -7 -10   17.96    3.72    5   7  10   13.47    3.25    5
7  10   18.03    3.44   -6  -7 -10   12.58    3.31    6   7  10
14.97    3.72    6   7  10   10.08    2.90   -7  -7 -10   11.23
3.34    7   7  10   22.79    4.06    7   7  10   19.47    4.23   -8
-7 -10   14.58    3.79    8   7  10   17.57    4.03    8   7  10
7.84    3.08    4  -8 -10   28.63    5.61    3  -8 -10   42.52    6.23
2  -8 -10   26.32    4.78   -2   8  10   25.58    4.12    1  -8 -10
3.76    2.43   -1   8  10    8.49    2.66    0  -8 -10    0.81    1.72
0   8  10   -0.72    1.33   -1  -8 -10    3.65    2.13    1   8  10
2.53    2.03    1   8  10    0.50    1.42   -2  -8 -10    3.26    1.98
2   8  10    1.60    2.04    2   8  10    4.84    2.02   -3  -8 -10
0.81    1.68    3   8  10    1.67    1.64    3   8  10    0.24    1.51
-4  -8 -10    5.93    2.35    4   8  10    2.58    2.20    4   8  10
5.35    2.40   -5  -8 -10   14.10    3.46    5   8  10   17.34    3.58
5   8  10   13.29    3.31   -6  -8 -10   26.42    4.58    6   8  10
28.22    4.66    6   8  10   33.24    4.72   -7  -8 -10   36.44
5.50    7   8  10   37.69    5.13    7   8  10   38.46    5.61   -3
9  10   12.24    3.42    2  -9 -10    6.02    3.06   -2   9  10
3.38    2.24    1  -9 -10    4.74    2.99   -1   9  10    3.40    2.24
0  -9 -10    0.75    1.89    0   9  10    0.85    1.74   -1  -9 -10
-0.41    1.70    1   9  10   -0.02    1.83    1   9  10    0.96
1.59   -2  -9 -10    2.03    1.80    2   9  10    0.93    2.06    2
9  10    1.98    1.92   -3  -9 -10   -0.95    1.75    3   9  10
-1.12    1.50    3   9  10    0.34    2.00   -4  -9 -10    5.15
2.43    4   9  10    6.22    2.69    4   9  10    1.64    1.81   -5
-9 -10    1.35    1.98    5   9  10    2.56    2.41    5   9  10
0.52    1.59   -6  -9 -10   -1.44    1.67    6   9  10   -0.16    1.67
6   9  10   -1.56    1.70   -7  -9 -10   -1.44    1.70    7   9  10
0.94    2.28    7   9  10   -0.13    1.88   -1  10  10   55.10    6.31
0 -10 -10   46.14    5.72    0  10  10   29.08    4.78   -1 -10 -10
23.07    4.44    1  10  10   19.98    4.09   -2 -10 -10   14.73
3.52    2  10  10   11.94    3.48    2  10  10   19.87    3.99   -3
-10 -10    5.19    2.70    3  10  10    4.98    2.48    3  10  10
12.63    3.65   -4 -10 -10   -0.60    1.94    4  10  10    4.37
2.32    4  10  10    2.28    2.26   -5 -10 -10   -1.40    1.86    5
10  10   -1.13    2.07    5  10  10   -1.78    1.67    2   8 -11
61.28    7.14   -2  -8  11   60.97    6.52    1   8 -11   59.82
7.11   -1  -8  11   56.26    6.28    0   8 -11   43.70    6.48    0
-8  11   52.89    5.93   -1   8 -11   64.49    7.54    1  -8  11
51.40    5.96   -2   8 -11   37.64    6.26    2  -8  11   33.76
5.12    4   7 -11    4.43    2.65   -4  -7  11    3.11    2.13    3
7 -11    6.20    2.87   -3  -7  11    6.99    2.58    2   7 -11
5.80    2.53   -2  -7  11    2.86    2.13    1   7 -11    8.36    2.81
-1  -7  11    9.42    2.90    0   7 -11    1.05    2.17    0  -7  11
0.61    1.78   -1   7 -11    4.16    2.57    1  -7  11    3.84    2.21
-2   7 -11    4.78    2.60    2  -7  11    6.54    2.66   -3   7 -11
-1.45    2.20    3  -7  11    2.52    2.17   -4   7 -11    6.96
3.61    4  -7  11   14.57    3.44   -5  -6  11   35.28    5.08    4
6 -11   33.97    4.92   -4  -6  11   37.01    5.09    3   6 -11
56.72    6.01   -3  -6  11   52.80    5.72    2   6 -11   39.03
5.31   -2  -6  11   47.18    5.33    1   6 -11   77.51    7.08   -1
-6  11   83.17    6.33    0   6 -11   92.77    7.44    0  -6  11
92.62    6.95   -1   6 -11  108.33    8.10    1  -6  11  114.01
7.60   -2   6 -11  110.38    8.23    2  -6  11  100.44    7.18   -3
6 -11   64.19    7.08    3  -6  11   64.40    6.08   -4   6 -11
54.07    6.81    4  -6  11   52.00    5.73   -5   6 -11   41.07
5.62   -5   6 -11   41.31    6.20    5  -6  11   35.28    5.14   -5
-5  11    1.18    1.93    4   5 -11   -0.77    1.41   -4  -5  11
0.97    1.73    3   5 -11    0.63    1.71   -3  -5  11    2.32    1.70
2   5 -11    0.79    1.74   -2  -5  11    1.41    1.76    1   5 -11
9.37    2.81   -1  -5  11    4.76    2.38    0   5 -11    9.10    2.92
0  -5  11    8.69    2.72   -1   5 -11    2.01    1.86    1  -5  11
1.52    1.68   -2   5 -11    1.94    1.87    2  -5  11    6.39    2.42
-3   5 -11    3.27    2.17    3  -5  11    7.75    2.59   -4   5 -11
14.10    3.67    4  -5  11    8.00    2.59   -5   5 -11    5.68
2.98    5  -5  11   10.21    2.97   -6   5 -11   11.56    3.35   -6
5 -11    9.28    3.60    6  -5  11   11.79    3.24    6   4 -11
2.07    3.18   -6  -4  11    3.16    2.32    5   4 -11    4.16    2.23
5   4 -11    4.38    3.37   -5  -4  11    2.94    2.07    4   4 -11
10.31    4.02    4   4 -11    6.40    2.38   -4  -4  11    7.99
2.61    3   4 -11   21.03    3.73    3   4 -11   13.52    3.99   -3
-4  11   14.61    3.16    2   4 -11   23.78    4.02    2   4 -11
22.28    4.39   -2  -4  11   33.62    4.27    1   4 -11   26.71
4.14   -1  -4  11   25.54    3.82    0   4 -11   54.75    5.60    0
-4  11   60.50    5.46   -1   4 -11   80.08    6.41    1  -4  11
93.41    6.41   -2   4 -11   89.27    6.88    2  -4  11  104.89
6.81   -3   4 -11   70.14    6.75    3  -4  11   83.15    6.07   -4
4 -11   77.74    7.05    4  -4  11   85.07    6.27   -5   4 -11
85.54    7.41    5  -4  11   70.60    6.06   -6   4 -11   29.73
5.23   -6   4 -11   43.34    5.26    6  -4  11   41.37    5.02    6
3 -11    1.03    3.67   -6  -3  11    2.73    2.17    5   3 -11
-2.87    2.59   -5  -3  11    0.43    1.78    4   3 -11   -0.37
2.71   -4  -3  11    0.04    1.61    3   3 -11    8.54    3.24   -3
-3  11    6.28    2.22    2   3 -11   -0.58    2.09   -2  -3  11
0.40    1.47    1   3 -11    1.90    2.09   -1  -3  11    1.35    1.38
0   3 -11    2.21    2.06    0  -3  11    1.61    1.62   -1   3 -11
20.30    3.48   -1   3 -11   15.72    3.37    1  -3  11   25.14
3.69   -2   3 -11   75.48    6.53    2  -3  11   63.57    5.98    2
-3  11   79.93    5.63   -3   3 -11   86.71    6.39    3  -3  11
73.75    5.50    3  -3  11   69.27    6.21   -4   3 -11   62.79
6.10   -4   3 -11   56.91    5.87    4  -3  11   69.93    5.64   -5
3 -11   26.18    4.31   -6   3 -11   37.88    5.19    6   2 -11
21.11    5.53   -6  -2  11   21.78    4.03    5   2 -11   29.21
5.56   -5  -2  11   20.55    3.76    4   2 -11   12.44    3.95   -4
-2  11   10.59    2.72    3   2 -11   -1.48    2.08   -3  -2  11
0.40    1.52    2   2 -11   19.24    3.90   -2  -2  11   17.17    3.07
1   2 -11    0.21    1.92   -1  -2  11    1.90    1.52    0   2 -11
7.45    2.61    0  -2  11   10.77    2.74    0  -2  11   10.09    2.38
-1   2 -11   17.57    3.32    1  -2  11   17.43    3.12    1  -2  11
17.09    3.38   -2   2 -11   17.28    3.32    2  -2  11   11.87
2.62    2  -2  11   13.44    3.11   -3   2 -11   30.48    4.38   -3
2 -11   24.43    3.78    3  -2  11   26.80    3.91    3  -2  11
29.55    4.28   -4   2 -11   56.40    5.62   -4   2 -11   49.73
5.35    4  -2  11   47.57    5.20   -5   2 -11   66.29    6.05   -6
2 -11   44.14    5.38    6   1 -11   20.58    5.28   -6  -1  11
23.61    4.03    5   1 -11   17.34    4.72   -5  -1  11   22.99
3.74    4   1 -11   16.88    4.42   -4  -1  11   16.29    3.10    3
1 -11    9.77    3.35   -3  -1  11    9.65    2.47    2   1 -11
2.75    2.15   -2  -1  11    0.97    1.40    1   1 -11    0.21    1.94
-1  -1  11    0.06    1.32   -1  -1  11    2.70    1.75    0   1 -11
6.39    2.33    0  -1  11    8.57    2.19    0  -1  11    7.11    2.40
-1   1 -11    7.12    2.38    1  -1  11    7.05    2.45   -2   1 -11
9.28    2.54    2  -1  11    6.78    2.40    2  -1  11    6.54    2.34
-3   1 -11   19.86    3.75   -3   1 -11   25.13    3.84    3  -1  11
32.68    4.20    3  -1  11   25.09    4.03   -4   1 -11   45.08
4.89   -4   1 -11   38.06    4.78    4  -1  11   34.82    4.54    4
-1  11   51.32    5.05   -5   1 -11   94.26    6.82   -5   1 -11
107.32    7.20    5  -1  11  101.98    7.04   -6   1 -11   52.89
5.49   -6   1 -11   55.57    5.50    6  -1  11   57.17    5.53    6
0 -11   27.12    5.95   -6   0  11   26.61    4.27    5   0 -11
20.87    5.18   -5   0  11   19.25    3.42    4   0 -11   25.77
5.01   -4   0  11   21.81    3.46    3   0 -11    3.03    1.80    3
0 -11    1.41    2.31   -3   0  11    2.72    1.71    2   0 -11
10.69    3.14   -2   0  11    8.54    2.25    1   0 -11   -0.20
1.51   -1   0  11    0.28    1.41    0   0 -11    5.48    2.21    0
0  11    4.18    2.00   -1   0 -11    1.66    1.61    1   0  11
2.04    1.66   -2   0 -11   12.13    2.95   -2   0 -11   13.36    3.00
2   0  11    7.46    2.44    2   0  11   13.69    3.07   -3   0 -11
3.77    1.92   -3   0 -11   -0.24    1.49    3   0  11   -0.45    1.34
3   0  11   -0.06    1.58   -4   0 -11   -0.20    1.39   -4   0 -11
1.52    1.63    4   0  11   -0.34    1.52    4   0  11    0.38    1.58
-5   0 -11    3.62    2.07    5   0  11    3.88    2.08   -6   0 -11
0.84    1.57   -6   0 -11    0.94    1.54    6   0  11    0.94    1.83
-7   0 -11    6.80    2.62    7   0  11    0.64    2.07   -8   0 -11
1.93    2.09    8   0  11    2.99    2.34    6  -1 -11   69.25    8.57
-6   1  11   71.52    6.23    5  -1 -11   90.01    8.95   -5   1  11
81.74    6.04    4  -1 -11   81.97    7.95   -4   1  11   72.15
5.36    3  -1 -11   67.65    6.89    3  -1 -11   75.73    4.88    2
-1 -11   32.51    4.82   -2   1  11   30.88    4.28    1  -1 -11
9.25    2.75   -1   1  11   10.03    2.62    0  -1 -11   22.90    3.93
0   1  11   23.69    3.88   -1  -1 -11    9.24    2.78    1   1  11
11.84    2.75   -2  -1 -11    1.67    1.74   -2  -1 -11   -0.43
1.42    2   1  11    3.17    1.78    2   1  11   -1.23    1.47   -3
-1 -11    0.47    1.51   -3  -1 -11   -0.25    1.32    3   1  11
-0.81    1.24    3   1  11    1.20    1.58   -4  -1 -11    3.50
2.15   -4  -1 -11    3.50    2.08    4   1  11    6.19    2.35   -5
-1 -11    5.03    2.28    5   1  11   10.64    2.95   -6  -1 -11
29.19    4.57    6   1  11   35.03    4.73   -7  -1 -11   48.97
5.69    7   1  11   48.69    5.70   -8  -1 -11   43.68    5.76    8
1  11   43.83    5.69    6  -2 -11    6.00    4.25    5  -2 -11
-2.31    2.40    4  -2 -11    4.50    2.80    3  -2 -11    9.85
3.40    3  -2 -11    8.21    2.24    2  -2 -11   -0.45    1.76   -2
2  11    0.18    1.30    1  -2 -11    3.42    2.21   -1   2  11
2.11    1.76    0  -2 -11   -0.45    1.52    0   2  11    1.34    1.43
-1  -2 -11    1.59    1.70   -1  -2 -11    0.67    1.37    1   2  11
0.00    1.23    1   2  11   -0.74    1.46   -2  -2 -11   -0.43    1.34
-2  -2 -11    1.30    1.64    2   2  11   -1.03    1.02    2   2  11
2.60    1.67   -3  -2 -11    0.85    1.41   -3  -2 -11   -0.49    1.31
3   2  11   -0.21    1.41    3   2  11    0.93    1.51   -4  -2 -11
3.00    1.98    4   2  11    1.83    1.75   -5  -2 -11    7.98    2.85
5   2  11   10.84    2.95   -6  -2 -11   -0.89    1.28    6   2  11
0.61    1.53   -7  -2 -11    0.65    1.69    7   2  11    0.96    1.93
-8  -2 -11    0.31    2.04    8   2  11   -0.14    1.69    8   2  11
4.98    2.74    6  -3 -11   58.16    8.11    5  -3 -11   59.09    7.78
4  -3 -11   88.85    8.49    3  -3 -11  128.50    9.11    2  -3 -11
144.58    9.40    2  -3 -11  154.82    7.24   -2   3  11  143.28
8.56    1  -3 -11   70.00    6.39    1  -3 -11   66.12    6.01   -1
3  11   62.95    5.67    0  -3 -11   32.11    4.66    0  -3 -11
45.24    5.03    0   3  11   34.29    4.43   -1  -3 -11   41.85
5.01   -1  -3 -11   37.64    4.70    1   3  11   54.77    5.34    1
3  11   45.74    5.05   -2  -3 -11   28.94    4.38   -2  -3 -11
17.04    3.44    2   3  11   22.27    3.68    2   3  11   33.25
4.54   -3  -3 -11   26.44    4.30    3   3  11   24.67    4.06   -4
-3 -11   32.20    4.66    4   3  11   26.09    4.31   -5  -3 -11
1.29    1.65    5   3  11    0.76    1.59   -6  -3 -11   -0.98    1.35
6   3  11   -1.18    1.26    6   3  11    1.36    1.72   -7  -3 -11
2.83    2.00    7   3  11    3.17    1.98    7   3  11    2.11    2.20
-8  -3 -11   15.81    3.97    8   3  11   20.37    4.39    8   3  11
20.25    4.03    5  -4 -11   -0.64    2.84    4  -4 -11   10.35
3.76    3  -4 -11    8.13    3.26    2  -4 -11   19.13    3.58    2
-4 -11   17.54    2.91    2  -4 -11   20.30    4.11   -2   4  11
15.79    3.22    1  -4 -11   22.14    4.04    1  -4 -11   17.08
3.40   -1   4  11   19.03    3.49    0  -4 -11   14.16    3.31    0
-4 -11   15.37    3.22    0   4  11   14.76    3.22   -1  -4 -11
-0.40    1.55   -1  -4 -11    3.62    2.21    1   4  11   -0.19
1.58    1   4  11    4.64    2.04   -2  -4 -11    1.43    1.75    2
4  11    6.08    2.32   -3  -4 -11    0.08    1.56    3   4  11
-1.48    1.39   -4  -4 -11   12.18    3.09    4   4  11   10.53
2.94   -5  -4 -11   13.03    3.41    5   4  11   13.48    3.26    5
4  11   15.15    3.10   -6  -4 -11    0.55    1.71    6   4  11
3.22    1.95    6   4  11    1.93    1.91   -7  -4 -11    0.58    1.80
7   4  11   -0.83    1.73    7   4  11    0.99    1.77   -8  -4 -11
4.85    2.70    8   4  11    5.86    2.78    8   4  11    8.02    3.19
5  -5 -11   39.56    6.90    4  -5 -11   56.06    7.27    3  -5 -11
76.64    7.64    2  -5 -11   48.34    6.01    1  -5 -11   64.61
6.44    1  -5 -11   76.90    4.89    0  -5 -11   65.54    6.34   -1
-5 -11   56.36    5.85    1   5  11   55.01    5.74   -2  -5 -11
48.82    5.58    2   5  11   59.39    5.94   -3  -5 -11   45.58
5.46    3   5  11   39.93    5.14   -4  -5 -11   21.08    4.00    4
5  11   20.44    3.39    4   5  11   22.23    4.02   -5  -5 -11
5.96    2.64    5   5  11    8.85    2.89    5   5  11   13.23    2.89
-6  -5 -11   18.52    3.93    6   5  11   10.31    2.75    6   5  11
13.05    3.39   -7  -5 -11    3.35    2.29    7   5  11    4.45
2.60    7   5  11    4.49    2.18   -8  -5 -11    1.06    2.14    8
5  11    0.73    1.96    8   5  11   -0.25    1.86    4  -6 -11
14.40    4.42    3  -6 -11   42.58    6.29    2  -6 -11   24.00
4.69    1  -6 -11   39.56    5.40    0  -6 -11   41.64    5.37   -1
-6 -11   37.81    5.09    1   6  11   39.48    5.17   -2  -6 -11
40.87    5.20    2   6  11   29.24    4.70    2   6  11   36.20
4.12   -3  -6 -11   65.32    6.48    3   6  11   67.10    6.45    3
6  11   64.90    5.44   -4  -6 -11   67.80    6.71    4   6  11
69.54    5.81    4   6  11   65.46    6.57   -5  -6 -11   19.07
4.03    5   6  11   30.39    4.82    5   6  11   34.08    4.42   -6
-6 -11    7.35    2.80    6   6  11    5.56    2.47    6   6  11
8.65    2.93   -7  -6 -11    9.50    3.08    7   6  11   17.73    4.16
7   6  11    6.65    2.57   -8  -6 -11    5.30    2.73    8   6  11
14.34    3.61    8   6  11    8.66    3.14    3  -7 -11    3.37
2.91    2  -7 -11   24.03    4.66    1  -7 -11   30.66    5.05    0
-7 -11   32.68    5.05   -1  -7 -11   20.49    3.90    1   7  11
21.58    3.55    1   7  11   11.02    3.16    2   7  11   25.73
4.49    2   7  11   19.82    3.46   -3  -7 -11   16.68    3.66    3
7  11   15.35    3.12    3   7  11   12.39    3.35   -4  -7 -11
12.21    3.36    4   7  11   17.45    3.49    4   7  11   17.37
3.85   -5  -7 -11   17.47    3.97    5   7  11   12.67    3.08    5
7  11   10.51    3.35   -6  -7 -11    9.06    3.10    6   7  11
6.56    2.86    6   7  11    7.39    2.62   -7  -7 -11    9.52    3.21
7   7  11   14.20    3.57    7   7  11   14.88    3.97    1  -8 -11
20.18    4.51    0  -8 -11   70.14    6.90    0   8  11   65.53
5.99   -1  -8 -11   68.94    6.68    1   8  11   70.54    6.13   -2
-8 -11   72.91    6.87    2   8  11   64.95    6.62    2   8  11
63.67    5.84   -3  -8 -11   57.94    6.30    3   8  11   70.81
6.76    3   8  11   54.41    5.53   -4  -8 -11   61.50    6.56    4
8  11   58.58    5.78    4   8  11   53.91    6.23   -5  -8 -11
46.09    5.92    5   8  11   58.56    6.52    5   8  11   59.06
5.96   -6  -8 -11   73.93    7.30    6   8  11   66.52    7.04    6
8  11   59.33    6.30    1  -9 -11    2.75    2.53    0  -9 -11
2.38    2.56    0   9  11    2.86    2.23   -1  -9 -11    0.76    2.02
1   9  11    1.10    1.96   -2  -9 -11    4.92    2.44    2   9  11
1.60    1.90    2   9  11    4.64    2.72   -3  -9 -11    2.99    2.33
3   9  11    5.31    2.81    3   9  11    2.22    1.99   -4  -9 -11
3.55    2.35    4   9  11   -0.35    1.76    4   9  11    3.07    2.32
-5  -9 -11    0.41    1.94    5   9  11    1.33    2.26    5   9  11
1.63    2.04    1   7 -12    0.89    2.11   -1  -7  12    0.22    1.75
0   7 -12    2.94    2.48    0  -7  12    3.39    2.58   -1   7 -12
3.91    2.61    1  -7  12    0.65    1.95   -3  -6  12   61.92    6.35
2   6 -12   46.94    5.97   -2  -6  12   50.33    5.75    1   6 -12
19.68    4.15   -1  -6  12   20.85    4.18    0   6 -12   11.51
3.53    0  -6  12   16.51    3.68   -1   6 -12    1.94    2.36    1
-6  12    9.52    3.09   -2   6 -12    0.77    2.03    2  -6  12
5.91    2.51   -3   6 -12    0.45    2.30    3  -6  12   -0.76    1.72
4   5 -12    0.17    1.97   -4  -5  12    0.63    1.90    3   5 -12
2.63    2.16   -3  -5  12    0.98    1.72    2   5 -12    7.58    2.81
-2  -5  12   12.82    3.09    1   5 -12   10.36    3.03   -1  -5  12
14.55    3.28    0   5 -12   -1.20    1.33    0  -5  12    2.23
1.91   -1   5 -12   -0.51    1.68    1  -5  12   -0.06    1.60   -2
5 -12    0.06    1.84    2  -5  12   -0.69    1.67   -3   5 -12
-0.93    1.93    3  -5  12   -1.82    1.69   -4   5 -12    1.43
2.06    4  -5  12    1.37    2.02    4   4 -12   73.04    6.74    4
4 -12   76.79    8.16   -4  -4  12   75.41    6.63   -3  -4  12
58.18    5.81    2   4 -12   79.45    6.90   -2  -4  12   69.39
6.12    1   4 -12   55.92    5.98   -1  -4  12   72.04    6.17    0
4 -12   64.17    6.27    0  -4  12   69.28    6.11   -1   4 -12
27.07    4.51    1  -4  12   44.75    5.05   -2   4 -12   21.67
4.12    2  -4  12   27.48    4.20   -3   4 -12    7.47    2.82    3
-4  12    8.68    2.81   -4   4 -12    5.72    2.82    4  -4  12
3.35    2.16   -5   4 -12   -0.14    2.15    5   3 -12    9.75    4.43
-5  -3  12   16.27    3.62    4   3 -12   41.05    6.51   -4  -3  12
46.29    5.27    3   3 -12   34.45    5.76   -3  -3  12   37.51
4.63    2   3 -12   43.74    5.77   -2  -3  12   36.22    4.45    1
3 -12   19.57    4.11   -1  -3  12   17.61    3.41    0   3 -12
14.85    3.27    0   3 -12   11.64    3.39    0  -3  12    8.29
2.62   -1   3 -12   25.30    4.27    1  -3  12   30.89    4.24   -2
3 -12   41.81    5.33    2  -3  12   39.43    4.60   -3   3 -12
22.63    4.35   -4   3 -12   12.91    3.61   -5   3 -12    0.77
2.27   -6   3 -12    1.09    2.18    5   2 -12   31.10    6.26   -5
-2  12   20.12    3.86    4   2 -12   24.21    5.48   -4  -2  12
28.89    4.31    3   2 -12   39.33    5.89   -3  -2  12   42.48
4.78    2   2 -12   48.31    5.90   -2  -2  12   43.14    4.68    1
2 -12   42.76    5.45   -1  -2  12   44.43    4.58    0   2 -12
35.23    4.90    0  -2  12   45.25    4.63   -1   2 -12   57.81
5.72   -2   2 -12   10.44    3.02   -3   2 -12   24.14    4.19   -4
2 -12   16.30    3.61   -5   2 -12    9.33    2.98   -6   2 -12
4.45    2.45    5   1 -12   30.98    6.34   -5  -1  12   21.48    3.90
4   1 -12   18.47    4.86   -4  -1  12   23.85    3.85    3   1 -12
32.42    5.48   -3  -1  12   32.84    4.21    2   1 -12   39.32
5.64   -2  -1  12   46.33    4.62    1   1 -12   86.16    7.38    0
1 -12   95.19    7.20   -1   1 -12   56.31    5.68   -2   1 -12
59.03    5.80   -3   1 -12   77.62    6.25    3  -1  12   84.68
6.39   -4   1 -12   58.94    5.90    4  -1  12   54.41    5.67   -5
1 -12   54.62    5.87   -5   1 -12   49.07    5.65    5  -1  12
61.55    5.97   -6   1 -12   21.98    4.15    5   0 -12    0.32
2.86   -5   0  12    1.60    1.95    4   0 -12    5.04    3.32    3
0 -12   14.83    4.18    2   0 -12    6.83    3.04    1   0 -12
5.52    2.77    0   0 -12   -1.12    1.65   -1   0 -12   -0.35    1.57
-2   0 -12    7.30    2.49    2   0  12    6.42    2.57   -3   0 -12
4.14    2.17    3   0  12    6.51    2.57   -4   0 -12   10.17    3.05
4   0  12    8.47    2.84   -5   0 -12    8.93    2.87    5   0  12
8.03    2.84   -6   0 -12    2.10    1.77    6   0  12    2.33    1.98
-7   0 -12    0.76    1.90    7   0  12    0.63    2.13    5  -1 -12
-1.10    3.00    4  -1 -12    7.30    3.63    3  -1 -12   14.40
4.00    2  -1 -12   27.72    4.98    1  -1 -12   53.11    6.05    0
-1 -12   92.58    7.13   -1  -1 -12   72.63    6.63   -2  -1 -12
79.86    6.87    2   1  12   85.05    6.62   -3  -1 -12   81.63
6.55    3   1  12   83.47    6.50   -4  -1 -12  112.50    8.10    4
1  12  126.90    8.26   -5  -1 -12   87.80    7.06    5   1  12
84.96    6.83   -6  -1 -12  108.85    8.03    6   1  12   97.63
7.65   -7  -1 -12   54.82    6.39    7   1  12   75.03    7.03    5
-2 -12    3.21    3.40    4  -2 -12    3.58    3.15    3  -2 -12
1.39    2.23    2  -2 -12   -2.44    1.54    1  -2 -12    8.57    2.93
0  -2 -12    2.07    1.98   -1  -2 -12    1.95    1.88   -2  -2 -12
2.08    1.67    2   2  12    1.22    1.61   -3  -2 -12    2.10    1.95
3   2  12    2.18    1.76   -4  -2 -12    4.67    2.49    4   2  12
5.58    2.44   -5  -2 -12   25.31    4.56    5   2  12   32.28    4.81
-6  -2 -12    4.42    2.46    6   2  12    1.02    1.90   -7  -2 -12
-0.95    1.63    7   2  12    3.69    2.41    5  -3 -12   12.12
4.66    4  -3 -12    6.98    3.69    3  -3 -12    2.82    2.75    2
-3 -12    4.14    2.62    1  -3 -12    5.55    2.72    0  -3 -12
8.45    3.03   -1  -3 -12   41.44    5.40   -2  -3 -12   32.95    4.95
2   3  12   43.62    5.30   -3  -3 -12   27.94    4.68    3   3  12
34.40    4.96   -4  -3 -12   61.42    6.57    4   3  12   84.61
7.17   -5  -3 -12   62.96    6.53    5   3  12   60.07    6.34   -6
-3 -12   51.83    6.38    6   3  12   67.86    6.69   -7  -3 -12
49.32    6.31    7   3  12   47.78    6.01    4  -4 -12    2.79
3.16    3  -4 -12    1.25    2.69    2  -4 -12   -1.17    1.87    1
-4 -12   10.03    3.16    0  -4 -12    2.93    2.38   -1  -4 -12
1.79    1.87   -2  -4 -12    9.34    3.03    2   4  12   15.91    3.59
-3  -4 -12   10.01    3.18    3   4  12    5.12    2.64   -4  -4 -12
12.55    3.44    4   4  12    8.85    2.84   -5  -4 -12   -0.16
1.69    5   4  12    0.24    1.84   -6  -4 -12   32.37    5.48    6
4  12   33.41    5.17   -7  -4 -12   30.41    5.30    7   4  12
24.30    4.67    4  -5 -12   35.47    6.53    3  -5 -12   33.84
5.93    2  -5 -12   12.44    3.64    1  -5 -12    9.83    3.36    0
-5 -12    2.01    2.22   -1  -5 -12   -1.55    1.25   -2  -5 -12
5.73    2.73    2   5  12    2.01    2.19   -3  -5 -12    6.05    2.62
3   5  12    2.32    2.19   -4  -5 -12    4.57    2.49    4   5  12
6.03    2.60   -5  -5 -12   29.34    4.99    5   5  12   23.42    4.45
-6  -5 -12    7.29    3.01    6   5  12   14.12    3.56   -7  -5 -12
12.62    3.85    7   5  12   11.80    3.37    7   5  12    9.92
3.39    3  -6 -12   31.98    5.95    2  -6 -12   27.16    5.30    1
-6 -12    9.93    3.26    0  -6 -12   11.54    3.34   -1  -6 -12
1.91    2.17   -2  -6 -12    1.47    1.95    2   6  12    1.70    2.07
-3  -6 -12   -0.67    1.81    3   6  12   -1.06    1.85   -4  -6 -12
1.35    1.95    4   6  12   -0.22    1.86   -5  -6 -12   29.05    5.06
5   6  12   22.10    3.81    5   6  12   19.13    4.31   -6  -6 -12
6.57    2.89    6   6  12   14.76    3.80    6   6  12   10.33    3.02
2  -7 -12   15.36    4.22    1  -7 -12   28.97    5.32    0  -7 -12
22.96    4.56   -1  -7 -12    4.02    2.52   -2  -7 -12    1.38
2.12    2   7  12    0.94    2.13   -3  -7 -12   -0.21    1.80    3
7  12   -0.61    1.74   -4  -7 -12   -1.26    1.63    4   7  12
0.14    1.95    4   7  12   -1.97    1.50   -5  -7 -12   -2.35    1.60
5   7  12    2.84    2.17    5   7  12    1.15    2.16   -6  -7 -12
1.38    1.99    6   7  12    3.46    2.33    6   7  12    6.16    2.90
0  -8 -12   57.77    6.78   -1  -8 -12   28.99    5.18   -2  -8 -12
32.23    5.28    2   8  12   16.99    4.16   -3  -8 -12    6.22
2.74    3   8  12    3.75    2.49    3   8  12    1.18    1.77   -4
-8 -12    0.15    1.98    4   8  12   -0.17    1.78    4   8  12
-0.92    1.95    1   5 -13   -1.24    1.53   -1  -5  13    2.83
2.26    0   5 -13   12.61    3.63    0  -5  13   13.91    3.34   -1
5 -13   13.63    3.79    1  -5  13    3.18    2.24   -2   5 -13
7.62    3.04    2  -5  13    6.75    2.83    2   4 -13   -1.51    1.38
-2  -4  13   -0.44    1.77    1   4 -13   14.39    3.43   -1  -4  13
8.36    2.86    0   4 -13   10.34    3.13    0  -4  13    5.79    2.50
-1   4 -13   17.30    3.91    1  -4  13   19.26    3.74   -2   4 -13
25.62    4.65   -3   4 -13   15.43    4.08    3   3 -13   15.05
4.89   -3  -3  13   15.02    3.40    2   3 -13    3.31    2.99   -2
-3  13    5.74    2.48   -1  -3  13    1.24    1.98    0   3 -13
1.90    1.83    0  -3  13   -0.03    1.78   -1   3 -13   -0.29    1.72
-2   3 -13    8.89    3.14   -3   3 -13   17.35    4.06   -4   3 -13
17.46    3.95    3   2 -13    8.98    3.89   -3  -2  13   11.49
3.04    2   2 -13    1.54    2.62    1   2 -13    7.20    3.08    0
2 -13    6.18    2.96   -1   2 -13    2.33    2.27   -3   2 -13
1.06    1.86   -4   2 -13   -0.16    1.84   -5   2 -13    6.83    2.97
4   1 -13   40.04    6.86    3   1 -13   35.06    6.13    2   1 -13
54.43    6.64    1   1 -13   25.95    4.82    0   1 -13   12.00
3.64   -1   1 -13    1.04    2.21   -2   1 -13    0.89    2.05   -3
1 -13   -0.54    1.58    3  -1  13   -1.05    1.72   -4   1 -13
1.31    1.94   -4   1 -13    2.34    2.01    4  -1  13    3.15    2.46
-5   1 -13   13.72    3.65    4   0 -13   11.52    4.41    3   0 -13
12.21    4.19    2   0 -13    3.96    2.93    1   0 -13    7.90
3.21    0   0 -13    5.02    2.68   -1   0 -13    2.74    2.13   -2
0 -13    8.06    2.95   -3   0 -13    3.68    2.37    3   0  13
0.71    1.92   -4   0 -13    0.44    1.99    4   0  13    1.78    2.22
-5   0 -13    0.19    1.87    5   0  13    0.06    1.89   -6   0 -13
0.52    2.20    6   0  13    1.10    2.19    4  -1 -13   66.46    8.33
3  -1 -13   68.29    7.81    2  -1 -13   52.40    6.84    1  -1 -13
62.44    6.90    0  -1 -13   53.03    6.28   -1  -1 -13   68.74
6.86   -2  -1 -13   39.47    5.44   -3  -1 -13    8.67    2.98    3
1  13   12.67    3.27   -4  -1 -13    3.38    2.39    4   1  13
4.38    2.56   -5  -1 -13   -2.84    1.60    5   1  13   -1.26    1.87
-6  -1 -13    4.48    2.76    6   1  13    2.36    2.40    3  -2 -13
-1.18    2.51    2  -2 -13    0.51    2.14    1  -2 -13   12.53
3.63    0  -2 -13    0.15    1.88   -1  -2 -13    5.81    2.64   -2
-2 -13   14.08    3.44    2   2  13   15.00    3.70   -3  -2 -13
0.01    1.71    3   2  13    0.37    2.02   -4  -2 -13    1.37    2.10
4   2  13    0.21    1.91   -5  -2 -13   -0.71    1.81    5   2  13
-0.83    2.02   -6  -2 -13    0.01    1.80    6   2  13   -0.47
1.94    3  -3 -13   33.84    6.11    2  -3 -13   47.88    6.68    1
-3 -13   63.72    7.11    0  -3 -13   77.73    7.49   -1  -3 -13
48.59    6.14   -2  -3 -13   43.24    5.79    2   3  13   41.51
5.52   -3  -3 -13   48.37    6.06    3   3  13   44.91    5.78   -4
-3 -13   46.73    6.20    4   3  13   39.46    5.61   -5  -3 -13
32.61    5.41    5   3  13   26.95    4.84   -6  -3 -13    1.84
2.23    6   3  13    1.19    2.31    3  -4 -13   -0.17    2.68    2
-4 -13   38.96    6.29    1  -4 -13   10.98    3.53    0  -4 -13
21.67    4.48   -1  -4 -13   23.61    4.68   -2  -4 -13   33.69
5.22    2   4  13   34.03    5.10   -3  -4 -13   42.53    5.95    3
4  13   46.53    5.97   -4  -4 -13   24.88    4.86    4   4  13
25.54    4.79   -5  -4 -13    8.51    3.30    5   4  13   12.72
3.68   -6  -4 -13   10.50    3.60    6   4  13   10.95    3.74    2
-5 -13   19.67    4.72    1  -5 -13   10.07    3.69    0  -5 -13
32.88    5.41   -1  -5 -13   54.91    6.73   -2  -5 -13   28.92
4.97    2   5  13   27.64    4.80   -3  -5 -13   25.20    4.75    3
5  13   23.20    4.48   -4  -5 -13   26.41    5.06    4   5  13
29.88    5.23   -5  -5 -13   17.19    4.26    5   5  13   18.56
4.25    1  -6 -13   13.79    4.05    0  -6 -13   30.33    5.36   -1
-6 -13   43.26    6.15   -2  -6 -13   51.99    6.50    2   6  13
56.45    6.64   -3  -6 -13   40.86    5.95    3   6  13   44.81
6.08   -4  -6 -13   57.15    6.86    4   6  13   57.28    6.83   -2
-7 -13    8.60    3.08    2   7  13    4.09    2.88    0   2 -14
13.57    3.91   -2   2 -14   14.93    3.86    1   1 -14   28.07
5.49    0   1 -14   32.40    5.46   -1   1 -14   72.47    7.27   -2
1 -14   55.94    6.46   -3   1 -14   62.25    6.80    1   0 -14
-0.26    2.27    0   0 -14    5.64    2.89   -1   0 -14    2.34
2.45   -2   0 -14    2.37    2.24   -3   0 -14   -0.25    1.97   -4
0 -14    0.37    2.21    4   0  14    1.34    2.43    1  -1 -14
1.55    2.37    0  -1 -14    3.53    2.76   -1  -1 -14   22.72    4.67
-2  -1 -14   23.04    4.66   -3  -1 -14   55.49    6.53    3   1  14
52.22    6.12   -4  -1 -14   48.05    6.29    4   1  14   51.39
6.34    1  -2 -14   -1.19    2.20    0  -2 -14    0.57    2.11   -1
-2 -14   -0.91    2.03   -2  -2 -14   -1.09    1.96   -3  -2 -14
5.35    3.00    3   2  14   11.01    3.67   -4  -2 -14    4.27    2.79
4   2  14   10.35    3.51    0  -3 -14   -0.04    2.23   -1  -3 -14
0.47    2.05   -2  -3 -14    3.59    2.50   -3  -3 -14    2.90    2.40
3   3  14   -0.63    1.91   -1  -4 -14    4.24    2.68   -2  -4 -14
0.57    2.18   -3  -4 -14   -1.09    1.93    3   4  14    2.52    2.46
0   0   0    0.00    0.00
;
_shelx_hkl_checksum   93176
_publcif_info_exptl_table_max_cols   4
_publcif_info_exptl_table_use_headnotes   n
loop_
 _space_group_symop_operation_xyz
  'x, y, z'
  '-x, -y, -z'
loop_
 _atom_site_label
 _atom_site_type_symbol
 _atom_site_fract_x
 _atom_site_fract_y
 _atom_site_fract_z
 _atom_site_U_iso_or_equiv
 _atom_site_adp_type
 _atom_site_occupancy
 _atom_site_site_symmetry_order
 _atom_site_calc_flag
 _atom_site_refinement_flags_posn
 _atom_site_refinement_flags_adp
 _atom_site_refinement_flags_occupancy
 _atom_site_disorder_assembly
 _atom_site_disorder_group
  La1  La  0.52199(3)  -0.32292(2)  0.68603(2)  0.01084(7)  Uani  1
  1  d  .  .  .  .  .
  La2  La  0.53072(3)  -0.76016(2)  0.71951(2)  0.01214(8)  Uani  1
  1  d  .  .  .  .  .
  C1  C  0.7558(5)  -0.3848(4)  0.8638(4)  0.0166(10)  Uani  1  1  d
  .  .  .  .  .
  C2  C  0.8802(4)  -0.4406(4)  0.9383(4)  0.0117(9)  Uani  1  1  d
  .  .  .  .  .
  C3  C  1.0229(5)  -0.4444(4)  0.8824(4)  0.0150(10)  Uani  1  1  d
  .  .  .  .  .
  H3  H  1.0388  -0.4064  0.8034  0.018  Uiso  1  1  calc  R  U  .
  .  .
  C4  C  1.1425(4)  -0.5041(4)  0.9425(4)  0.0121(9)  Uani  1  1  d
  .  .  .  .  .
  C5  C  1.2905(5)  -0.5110(5)  0.8658(4)  0.0155(10)  Uani  1  1  d
  .  .  .  .  .
  C6  C  0.7819(5)  -0.6209(4)  0.6513(4)  0.0126(9)  Uani  1  1  d
  .  .  .  .  .
  C7  C  0.8973(5)  -0.5603(4)  0.5733(4)  0.0135(9)  Uani  1  1  d
  .  .  .  .  .
  C8  C  1.0429(5)  -0.5827(4)  0.5985(4)  0.0134(9)  Uani  1  1  d
  .  .  .  .  .
  H8  H  1.0712  -0.6388  0.6638  0.016  Uiso  1  1  calc  R  U  .
  .  .
  C9  C  1.1467(4)  -0.5215(4)  0.5265(4)  0.0127(9)  Uani  1  1  d
  .  .  .  .  .
  C10  C  1.3026(5)  -0.5327(4)  0.5596(4)  0.0121(9)  Uani  1  1  d
  .  .  .  .  .
  C11  C  0.7358(4)  -0.8492(4)  0.4215(4)  0.0134(9)  Uani  1  1  d
  .  .  .  .  .
  C12  C  0.8717(5)  -0.9274(4)  0.4650(4)  0.0130(9)  Uani  1  1  d
  .  .  .  .  .
  C13  C  1.0070(5)  -0.9084(4)  0.4047(4)  0.0167(10)  Uani  1  1
  d  .  .  .  .  .
  H13  H  1.0116  -0.8461  0.3410  0.020  Uiso  1  1  calc  R  U  .
  .  .
  C14  C  1.1366(5)  -0.9814(4)  0.4381(4)  0.0120(9)  Uani  1  1  d
  .  .  .  .  .
  C15  C  1.2812(4)  -0.9534(4)  0.3700(4)  0.0123(9)  Uani  1  1  d
  .  .  .  .  .
  H18A  H  0.1116  -0.8796  0.8632  0.018  Uiso  1  1  d  R  U  .  .
  .
  H18B  H  -0.0484  -0.8378  0.7665  0.018  Uiso  1  1  d  R  U  .
  .  .
  H16A  H  0.5610  -0.0787  0.8152  0.015  Uiso  1  1  d  R  U  .  .
  .
  H16B  H  0.3772  -0.1039  0.8426  0.015  Uiso  1  1  d  R  U  .  .
  .
  H14A  H  0.3367  -0.8457  0.9191  0.015  Uiso  1  1  d  R  U  .  .
  .
  H14B  H  0.4576  -0.8761  1.0002  0.015  Uiso  1  1  d  R  U  .  .
  .
  H15A  H  0.2366  -0.8842  0.7190  0.015  Uiso  1  1  d  R  U  .  .
  .
  H15B  H  0.3273  -0.8732  0.5812  0.015  Uiso  1  1  d  R  U  .  .
  .
  H13A  H  0.6943  -0.7360  0.9312  0.015  Uiso  1  1  d  R  U  .  .
  .
  H13B  H  0.5489  -0.6480  0.9739  0.015  Uiso  1  1  d  R  U  .  .
  .
  H19A  H  0.8410  -0.8636  0.1306  0.015  Uiso  1  1  d  R  U  .  .
  .
  H19B  H  0.8787  -0.9230  0.0039  0.015  Uiso  1  1  d  R  U  .  .
  .
  H17A  H  0.2055  -0.9495  1.1245  0.049  Uiso  1  1  d  R  U  .  .
  .
  H17B  H  0.1363  -0.8520  1.0303  0.037  Uiso  1  1  d  R  U  .  .
  .
  O1  O  0.7807(4)  -0.3222(4)  0.7646(3)  0.0280(9)  Uani  1  1  d
  .  .  .  .  .
  O2  O  0.6281(3)  -0.4090(3)  0.9007(3)  0.0242(8)  Uani  1  1  d
  .  .  .  .  .
  O3  O  1.3350(4)  -0.6147(3)  0.8172(3)  0.0289(9)  Uani  1  1  d
  .  .  .  .  .
  O4  O  1.3474(4)  -0.4123(3)  0.8482(3)  0.0244(8)  Uani  1  1  d
  .  .  .  .  .
  O5  O  0.6533(3)  -0.5565(3)  0.6695(3)  0.0147(7)  Uani  1  1  d
  .  .  .  .  .
  O6  O  0.8078(3)  -0.7324(3)  0.6927(3)  0.0200(7)  Uani  1  1  d
  .  .  .  .  .
  O7  O  1.3418(3)  -0.4387(3)  0.5976(3)  0.0169(7)  Uani  1  1  d
  .  .  .  .  .
  O8  O  1.3831(3)  -0.6409(3)  0.5453(3)  0.0152(7)  Uani  1  1  d
  .  .  .  .  .
  O9  O  0.6239(3)  -0.8224(3)  0.4989(3)  0.0175(7)  Uani  1  1  d
  .  .  .  .  .
  O10  O  0.7358(3)  -0.8131(3)  0.3100(3)  0.0211(8)  Uani  1  1  d
  .  .  .  .  .
  O11  O  1.3296(3)  -1.0140(3)  0.2733(3)  0.0177(7)  Uani  1  1  d
  .  .  .  .  .
  O12  O  1.3410(3)  -0.8695(3)  0.4092(3)  0.0199(7)  Uani  1  1  d
  .  .  .  .  .
  O13  O  0.6122(4)  -0.6847(4)  0.9182(3)  0.0365(10)  Uani  1  1
  d  .  .  .  .  .
  O14  O  0.4301(4)  -0.8752(4)  0.9180(3)  0.0322(9)  Uani  1  1  d
  .  .  .  .  .
  O15  O  0.3337(4)  -0.8845(3)  0.6688(3)  0.0279(8)  Uani  1  1  d
  .  .  .  .  .
  O16  O  0.4802(4)  -0.1419(3)  0.8407(3)  0.0244(8)  Uani  1  1  d
  .  .  .  .  .
  O17  O  0.1742(9)  -0.9334(8)  1.0421(8)  0.127(3)  Uani  1  1  d
  .  U  .  .  .
  O18  O  0.0607(6)  -0.8665(6)  0.7938(5)  0.0766(16)  Uani  1  1
  d  .  U  .  .  .
  O19  O  0.8490(8)  -0.8348(6)  0.0494(6)  0.104(2)  Uani  1  1  d
  .  .  .  .  .
loop_
 _atom_site_aniso_label
 _atom_site_aniso_U_11
 _atom_site_aniso_U_22
 _atom_site_aniso_U_33
 _atom_site_aniso_U_23
 _atom_site_aniso_U_13
 _atom_site_aniso_U_12
  La1  0.00909(12)  0.01237(14)  0.01087(15)  0.00005(10)
  -0.00156(10)  -0.00084(9)
  La2  0.01112(13)  0.01226(14)  0.01265(15)  0.00004(10)
  0.00025(10)  -0.00167(10)
  C1  0.016(2)  0.018(2)  0.015(3)  0.0022(19)  -0.0048(19)
  -0.0005(18)
  C2  0.0100(19)  0.012(2)  0.013(2)  0.0006(17)  -0.0025(17)
  0.0000(16)
  C3  0.011(2)  0.021(2)  0.012(2)  0.0037(19)  -0.0015(17)
  -0.0005(18)
  C4  0.0083(19)  0.014(2)  0.013(2)  -0.0024(18)  -0.0009(17)
  0.0011(16)
  C5  0.009(2)  0.026(3)  0.009(2)  0.0038(19)  -0.0034(17)
  0.0028(18)
  C6  0.012(2)  0.015(2)  0.011(2)  0.0010(18)  -0.0017(17)
  -0.0028(17)
  C7  0.011(2)  0.016(2)  0.014(2)  -0.0046(18)  -0.0014(17)
  -0.0022(17)
  C8  0.014(2)  0.013(2)  0.013(2)  0.0007(18)  -0.0030(18)
  -0.0021(17)
  C9  0.0077(19)  0.014(2)  0.017(2)  -0.0051(18)  -0.0038(17)
  0.0007(16)
  C10  0.011(2)  0.016(2)  0.009(2)  0.0025(18)  -0.0002(17)
  -0.0010(17)
  C11  0.0084(19)  0.014(2)  0.018(3)  0.0011(18)  -0.0012(18)
  -0.0026(17)
  C12  0.011(2)  0.012(2)  0.015(2)  -0.0012(18)  -0.0001(17)
  0.0016(17)
  C13  0.019(2)  0.015(2)  0.015(3)  0.0042(19)  -0.0022(19)
  0.0005(18)
  C14  0.012(2)  0.016(2)  0.008(2)  -0.0046(17)  -0.0024(17)
  0.0005(17)
  C15  0.011(2)  0.015(2)  0.010(2)  0.0035(18)  -0.0033(17)
  0.0017(17)
  O1  0.0173(17)  0.042(2)  0.023(2)  0.0166(17)  -0.0060(15)
  -0.0041(16)
  O2  0.0111(16)  0.038(2)  0.023(2)  0.0079(16)  -0.0040(14)
  -0.0041(15)
  O3  0.031(2)  0.025(2)  0.024(2)  -0.0005(16)  0.0067(16)
  0.0091(16)
  O4  0.0192(17)  0.039(2)  0.0169(19)  0.0036(16)  -0.0001(14)
  -0.0154(16)
  O5  0.0105(14)  0.0167(17)  0.0166(18)  0.0002(13)  -0.0006(13)
  -0.0012(12)
  O6  0.0135(15)  0.0170(17)  0.028(2)  0.0064(15)  -0.0009(14)
  -0.0006(13)
  O7  0.0178(16)  0.0190(18)  0.0150(18)  -0.0022(14)  -0.0033(13)
  -0.0044(13)
  O8  0.0158(16)  0.0142(16)  0.0142(17)  -0.0033(13)  -0.0019(13)
  0.0038(13)
  O9  0.0119(15)  0.0201(18)  0.0189(19)  -0.0019(14)  0.0006(13)
  0.0021(13)
  O10  0.0200(17)  0.0255(19)  0.0140(18)  0.0015(14)  -0.0010(14)
  0.0072(14)
  O11  0.0173(16)  0.0160(17)  0.0185(19)  -0.0022(14)  0.0034(13)
  -0.0016(13)
  O12  0.0216(17)  0.0201(18)  0.0206(19)  0.0005(14)  -0.0022(14)
  -0.0117(14)
  O13  0.030(2)  0.064(3)  0.019(2)  -0.0113(19)  0.0023(16)
  -0.017(2)
  O14  0.046(2)  0.030(2)  0.020(2)  -0.0006(16)  0.0026(17)
  -0.0053(18)
  O15  0.031(2)  0.034(2)  0.023(2)  0.0006(16)  -0.0076(16)
  -0.0160(17)
  O16  0.0242(18)  0.0239(19)  0.025(2)  -0.0068(16)  0.0060(15)
  -0.0070(15)
  O17  0.126(3)  0.132(3)  0.125(3)  -0.0018(19)  -0.0164(19)
  -0.0223(19)
  O18  0.069(2)  0.082(2)  0.076(2)  0.0039(17)  -0.0118(17)
  -0.0048(17)
  O19  0.139(6)  0.087(5)  0.071(5)  -0.016(4)  0.018(4)  0.023(4)
loop_
 _atom_type_symbol
 _atom_type_description
 _atom_type_scat_dispersion_real
 _atom_type_scat_dispersion_imag
 _atom_type_scat_source
  C  C  0.0033  0.0016
  'International Tables Vol C Tables 4.2.6.8 and 6.1.1.4'
  O  O  0.0106  0.0060
  'International Tables Vol C Tables 4.2.6.8 and 6.1.1.4'
  H  H  0.0000  0.0000
  'International Tables Vol C Tables 4.2.6.8 and 6.1.1.4'
  La  La  -0.2871  2.4523
  'International Tables Vol C Tables 4.2.6.8 and 6.1.1.4'
loop_
 _geom_angle_atom_site_label_1
 _geom_angle_atom_site_label_2
 _geom_angle_atom_site_label_3
 _geom_angle
 _geom_angle_site_symmetry_1
 _geom_angle_site_symmetry_3
  O4  La1  O7  66.59(11)  1_455  1_455
  O4  La1  O10  69.82(11)  1_455  2_646
  O7  La1  O10  69.02(11)  1_455  2_646
  O4  La1  O8  137.34(11)  1_455  2_746
  O7  La1  O8  72.86(10)  1_455  2_746
  O10  La1  O8  107.62(10)  2_646  2_746
  O4  La1  O16  80.57(11)  1_455  .
  O7  La1  O16  130.83(10)  1_455  .
  O10  La1  O16  65.69(11)  2_646  .
  O8  La1  O16  139.10(10)  2_746  .
  O4  La1  O5  85.42(11)  1_455  .
  O7  La1  O5  74.83(10)  1_455  .
  O10  La1  O5  141.94(10)  2_646  .
  O8  La1  O5  71.48(9)  2_746  .
  O16  La1  O5  139.61(10)  .  .
  O4  La1  O1  112.16(11)  1_455  .
  O7  La1  O1  149.95(11)  1_455  .
  O10  La1  O1  140.45(11)  2_646  .
  O8  La1  O1  96.29(10)  2_746  .
  O16  La1  O1  75.54(11)  .  .
  O5  La1  O1  75.15(11)  .  .
  O4  La1  O12  150.19(11)  1_455  2_746
  O7  La1  O12  131.00(10)  1_455  2_746
  O10  La1  O12  92.94(10)  2_646  2_746
  O8  La1  O12  70.14(10)  2_746  2_746
  O16  La1  O12  70.04(10)  .  2_746
  O5  La1  O12  120.32(10)  .  2_746
  O1  La1  O12  65.77(10)  .  2_746
  O4  La1  O2  63.32(10)  1_455  .
  O7  La1  O2  119.46(10)  1_455  .
  O10  La1  O2  119.21(10)  2_646  .
  O8  La1  O2  133.00(10)  2_746  .
  O16  La1  O2  70.30(11)  .  .
  O5  La1  O2  69.55(10)  .  .
  O1  La1  O2  48.90(10)  .  .
  O12  La1  O2  109.20(10)  2_746  .
  O4  La1  O9  112.05(10)  1_455  2_646
  O7  La1  O9  67.81(10)  1_455  2_646
  O10  La1  O9  48.02(9)  2_646  2_646
  O8  La1  O9  61.29(9)  2_746  2_646
  O16  La1  O9  94.31(10)  .  2_646
  O5  La1  O9  126.02(9)  .  2_646
  O1  La1  O9  132.03(10)  .  2_646
  O12  La1  O9  66.71(9)  2_746  2_646
  O2  La1  O9  164.25(10)  .  2_646
  O4  La1  C1  88.07(12)  1_455  .
  O7  La1  C1  136.76(11)  1_455  .
  O10  La1  C1  135.75(12)  2_646  .
  O8  La1  C1  114.22(11)  2_746  .
  O16  La1  C1  73.35(12)  .  .
  O5  La1  C1  68.47(11)  .  .
  O1  La1  C1  24.32(11)  .  .
  O12  La1  C1  88.19(11)  2_746  .
  O2  La1  C1  24.76(11)  .  .
  O9  La1  C1  154.74(11)  2_646  .
  O4  La1  C11  90.15(11)  1_455  2_646
  O7  La1  C11  65.44(11)  1_455  2_646
  O10  La1  C11  23.54(11)  2_646  2_646
  O8  La1  C11  84.67(11)  2_746  2_646
  O16  La1  C11  79.75(12)  .  2_646
  O5  La1  C11  138.24(11)  .  2_646
  O1  La1  C11  142.95(12)  .  2_646
  O12  La1  C11  80.10(11)  2_746  2_646
  O2  La1  C11  142.32(11)  .  2_646
  O9  La1  C11  24.50(10)  2_646  2_646
  C1  La1  C11  152.97(12)  .  2_646
  O3  La2  O15  86.87(13)  1_455  .
  O3  La2  O9  136.97(11)  1_455  .
  O15  La2  O9  78.60(11)  .  .
  O3  La2  O11  145.62(11)  1_455  2_736
  O15  La2  O11  79.23(11)  .  2_736
  O9  La2  O11  70.77(10)  .  2_736
  O3  La2  O14  73.20(12)  1_455  .
  O15  La2  O14  70.48(12)  .  .
  O9  La2  O14  135.45(11)  .  .
  O11  La2  O14  72.53(11)  2_736  .
  O3  La2  O13  70.32(13)  1_455  .
  O15  La2  O13  135.81(12)  .  .
  O9  La2  O13  142.81(11)  .  .
  O11  La2  O13  98.45(12)  2_736  .
  O14  La2  O13  66.92(12)  .  .
  O3  La2  O8  72.37(11)  1_455  1_455
  O15  La2  O8  69.51(11)  .  1_455
  O9  La2  O8  64.60(9)  .  1_455
  O11  La2  O8  129.19(10)  2_736  1_455
  O14  La2  O8  127.71(11)  .  1_455
  O13  La2  O8  131.88(12)  .  1_455
  O3  La2  O5  82.99(11)  1_455  .
  O15  La2  O5  146.13(11)  .  .
  O9  La2  O5  87.07(10)  .  .
  O11  La2  O5  124.68(9)  2_736  .
  O14  La2  O5  135.38(11)  .  .
  O13  La2  O5  69.72(11)  .  .
  O8  La2  O5  76.62(9)  1_455  .
  O3  La2  O6  125.40(12)  1_455  .
  O15  La2  O6  147.49(11)  .  .
  O9  La2  O6  74.41(10)  .  .
  O11  La2  O6  75.04(10)  2_736  .
  O14  La2  O6  118.77(11)  .  .
  O13  La2  O6  68.41(11)  .  .
  O8  La2  O6  113.13(10)  1_455  .
  O5  La2  O6  49.99(9)  .  .
  O3  La2  C6  107.23(13)  1_455  .
  O15  La2  C6  153.01(12)  .  .
  O9  La2  C6  75.46(11)  .  .
  O11  La2  C6  98.89(11)  2_736  .
  O14  La2  C6  135.08(12)  .  .
  O13  La2  C6  71.18(12)  .  .
  O8  La2  C6  92.47(11)  1_455  .
  O5  La2  C6  25.80(10)  .  .
  O6  La2  C6  24.91(10)  .  .
  O1  C1  O2  121.5(4)  .  .
  O1  C1  C2  120.1(4)  .  .
  O2  C1  C2  118.3(4)  .  .
  O1  C1  La1  59.9(2)  .  .
  O2  C1  La1  62.3(2)  .  .
  C2  C1  La1  168.1(3)  .  .
  C3  C2  C4  119.1(4)  .  2_747
  C3  C2  C1  118.2(4)  .  .
  C4  C2  C1  122.6(4)  2_747  .
  C2  C3  C4  121.2(4)  .  .
  C2  C3  H3  119.4  .  .
  C4  C3  H3  119.4  .  .
  C3  C4  C2  119.8(4)  .  2_747
  C3  C4  C5  115.3(4)  .  .
  C2  C4  C5  124.7(4)  2_747  .
  O4  C5  O3  126.9(4)  .  .
  O4  C5  C4  117.8(4)  .  .
  O3  C5  C4  114.9(4)  .  .
  O6  C6  O5  121.1(4)  .  .
  O6  C6  C7  120.9(4)  .  .
  O5  C6  C7  117.9(4)  .  .
  O6  C6  La2  62.0(2)  .  .
  O5  C6  La2  62.0(2)  .  .
  C7  C6  La2  160.1(3)  .  .
  C8  C7  C9  120.8(4)  .  2_746
  C8  C7  C6  121.5(4)  .  .
  C9  C7  C6  117.7(4)  2_746  .
  C7  C8  C9  120.1(4)  .  .
  C7  C8  H8  120.0  .  .
  C9  C8  H8  120.0  .  .
  C8  C9  C7  119.1(4)  .  2_746
  C8  C9  C10  121.4(4)  .  .
  C7  C9  C10  119.3(4)  2_746  .
  O7  C10  O8  125.8(4)  .  .
  O7  C10  C9  117.6(4)  .  .
  O8  C10  C9  116.7(4)  .  .
  O10  C11  O9  121.8(4)  .  .
  O10  C11  C12  118.8(4)  .  .
  O9  C11  C12  119.4(4)  .  .
  O10  C11  La1  56.5(2)  .  2_646
  O9  C11  La1  65.4(2)  .  2_646
  C12  C11  La1  174.5(3)  .  2_646
  C13  C12  C14  120.1(4)  .  2_736
  C13  C12  C11  118.5(4)  .  .
  C14  C12  C11  121.4(4)  2_736  .
  C12  C13  C14  121.1(4)  .  .
  C12  C13  H13  119.5  .  .
  C14  C13  H13  119.5  .  .
  C12  C14  C13  118.8(4)  2_736  .
  C12  C14  C15  122.9(4)  2_736  .
  C13  C14  C15  118.2(4)  .  .
  O12  C15  O11  124.4(4)  .  .
  O12  C15  C14  117.9(4)  .  .
  O11  C15  C14  117.7(4)  .  .
  C1  O1  La1  95.8(3)  .  .
  C1  O2  La1  93.0(3)  .  .
  C5  O3  La2  150.2(3)  .  1_655
  C5  O4  La1  136.7(3)  .  1_655
  C6  O5  La2  92.2(2)  .  .
  C6  O5  La1  141.2(3)  .  .
  La2  O5  La1  126.19(11)  .  .
  C6  O6  La2  93.1(2)  .  .
  C10  O7  La1  153.6(3)  .  1_655
  C10  O8  La2  122.9(3)  .  1_655
  C10  O8  La1  112.4(3)  .  2_746
  La2  O8  La1  119.31(11)  1_655  2_746
  C11  O9  La2  146.1(3)  .  .
  C11  O9  La1  90.1(3)  .  2_646
  La2  O9  La1  114.32(11)  .  2_646
  C11  O10  La1  99.9(3)  .  2_646
  C15  O11  La2  123.5(3)  .  2_736
  C15  O12  La1  137.5(3)  .  2_746
  La2  O13  H13A  104.6  .  .
  La2  O13  H13B  121.2  .  .
  H13A  O13  H13B  127.0  .  .
  La2  O14  H14A  100.4  .  .
  La2  O14  H14B  129.2  .  .
  H14A  O14  H14B  108.3  .  .
  La2  O15  H15A  123.9  .  .
  La2  O15  H15B  107.0  .  .
  H15A  O15  H15B  114.1  .  .
  La1  O16  H16A  108.9  .  .
  La1  O16  H16B  107.7  .  .
  H16A  O16  H16B  116.4  .  .
  H17A  O17  H17B  110.5  .  .
  H18A  O18  H18B  141.4  .  .
  H19A  O19  H19B  100.6  .  .
loop_
 _geom_bond_atom_site_label_1
 _geom_bond_atom_site_label_2
 _geom_bond_distance
 _geom_bond_site_symmetry_2
  La1  O4  2.500(3)  1_455
  La1  O7  2.516(3)  1_455
  La1  O10  2.596(3)  2_646
  La1  O8  2.601(3)  2_746
  La1  O16  2.601(3)  .
  La1  O5  2.617(3)  .
  La1  O1  2.621(3)  .
  La1  O12  2.671(3)  2_746
  La1  O2  2.672(3)  .
  La1  O9  2.787(3)  2_646
  La1  C1  3.014(4)  .
  La1  C11  3.066(4)  2_646
  La2  O3  2.405(3)  1_455
  La2  O15  2.533(3)  .
  La2  O9  2.550(3)  .
  La2  O11  2.563(3)  2_736
  La2  O14  2.565(4)  .
  La2  O13  2.569(4)  .
  La2  O8  2.597(3)  1_455
  La2  O5  2.604(3)  .
  La2  O6  2.606(3)  .
  La2  C6  2.947(4)  .
  C1  O1  1.248(5)  .
  C1  O2  1.264(5)  .
  C1  C2  1.501(6)  .
  C2  C3  1.388(6)  .
  C2  C4  1.394(6)  2_747
  C3  C4  1.392(6)  .
  C3  H3  0.9300  .
  C4  C2  1.394(6)  2_747
  C4  C5  1.518(6)  .
  C5  O4  1.244(6)  .
  C5  O3  1.253(6)  .
  C6  O6  1.243(5)  .
  C6  O5  1.284(5)  .
  C6  C7  1.490(6)  .
  C7  C8  1.383(6)  .
  C7  C9  1.400(6)  2_746
  C8  C9  1.386(6)  .
  C8  H8  0.9300  .
  C9  C7  1.400(6)  2_746
  C9  C10  1.506(6)  .
  C10  O7  1.228(5)  .
  C10  O8  1.288(5)  .
  C11  O10  1.243(5)  .
  C11  O9  1.271(5)  .
  C11  C12  1.502(6)  .
  C11  La1  3.066(4)  2_646
  C12  C13  1.386(6)  .
  C12  C14  1.390(6)  2_736
  C13  C14  1.394(6)  .
  C13  H13  0.9300  .
  C14  C12  1.390(6)  2_736
  C14  C15  1.518(6)  .
  C15  O12  1.241(5)  .
  C15  O11  1.273(5)  .
  O3  La2  2.405(3)  1_655
  O4  La1  2.500(3)  1_655
  O7  La1  2.516(3)  1_655
  O8  La2  2.597(3)  1_655
  O8  La1  2.601(3)  2_746
  O9  La1  2.787(3)  2_646
  O10  La1  2.596(3)  2_646
  O11  La2  2.563(3)  2_736
  O12  La1  2.671(3)  2_746
  O13  H13A  0.8845  .
  O13  H13B  0.8652  .
  O14  H14A  0.8728  .
  O14  H14B  0.9501  .
  O15  H15A  0.9995  .
  O15  H15B  0.9551  .
  O16  H16A  1.0837  .
  O16  H16B  0.9754  .
  O17  H17A  0.9633  .
  O17  H17B  0.8948  .
  O18  H18A  0.9200  .
  O18  H18B  1.0747  .
  O19  H19A  0.9125  .
  O19  H19B  1.0781  .
loop_
 _geom_hbond_atom_site_label_D
 _geom_hbond_atom_site_label_H
 _geom_hbond_atom_site_label_A
 _geom_hbond_distance_DH
 _geom_hbond_distance_HA
 _geom_hbond_distance_DA
 _geom_hbond_angle_DHA
 _geom_hbond_site_symmetry_A
  O18  H18A  O17  0.92  2.10  2.992(10)  163.4  .
  O18  H18B  O6  1.07  1.82  2.835(6)  155.0  1_455
  O16  H16A  O11  1.08  1.70  2.748(4)  160.5  2_746
  O16  H16B  O10  0.98  2.33  2.819(5)  110.0  2_646
  O16  H16B  O19  0.98  2.44  3.188(8)  132.9  2_646
  O14  H14A  O17  0.87  2.18  2.730(9)  120.7  .
  O14  H14B  O16  0.95  1.90  2.848(5)  173.0  2_647
  O15  H15A  O18  1.00  1.73  2.722(7)  172.4  .
  O15  H15B  O12  0.96  1.85  2.799(5)  171.2  1_455
  O13  H13A  O19  0.88  2.13  2.946(8)  152.4  1_556
  O13  H13B  O2  0.87  2.06  2.909(5)  167.5  2_647
  O13  H13B  O4  0.87  2.40  2.877(5)  114.8  2_747
  O19  H19A  O10  0.91  2.14  2.918(7)  142.0  .
  O19  H19B  O17  1.08  1.80  2.775(11)  148.8  2_636
  O17  H17A  O11  0.96  2.10  3.029(9)  162.5  1_456
  O18  H18A  O17  0.92  2.10  2.992(10)  163.4  .
  O18  H18B  O6  1.07  1.82  2.835(6)  155.0  1_455
  O16  H16A  O11  1.08  1.70  2.748(4)  160.5  2_746
  O16  H16B  O19  0.98  2.44  3.188(8)  132.9  2_646
  O14  H14A  O17  0.87  2.18  2.730(9)  120.7  .
  O14  H14B  O16  0.95  1.90  2.848(5)  173.0  2_647
  O15  H15A  O18  1.00  1.73  2.722(7)  172.4  .
  O15  H15B  O12  0.96  1.85  2.799(5)  171.2  1_455
  O13  H13A  O19  0.88  2.13  2.946(8)  152.4  1_556
  O13  H13B  O2  0.87  2.06  2.909(5)  167.5  2_647
  O13  H13B  O4  0.87  2.40  2.877(5)  114.8  2_747
  O19  H19A  O10  0.91  2.14  2.918(7)  142.0  .
  O19  H19B  O17  1.08  1.80  2.775(11)  148.8  2_636
  O17  H17A  O11  0.96  2.10  3.029(9)  162.5  1_456
  O18  H18A  O17  0.92  2.10  2.992(10)  163.4  .
  O18  H18B  O6  1.07  1.82  2.835(6)  155.0  1_455
  O16  H16A  O11  1.08  1.70  2.748(4)  160.5  2_746
  O16  H16B  O19  0.98  2.44  3.188(8)  132.9  2_646
  O14  H14A  O17  0.87  2.18  2.730(9)  120.7  .
  O14  H14B  O16  0.95  1.90  2.848(5)  173.0  2_647
  O15  H15A  O18  1.00  1.73  2.722(7)  172.4  .
  O15  H15B  O12  0.96  1.85  2.799(5)  171.2  1_455
  O13  H13A  O19  0.88  2.13  2.946(8)  152.4  1_556
  O13  H13B  O2  0.87  2.06  2.909(5)  167.5  2_647
  O13  H13B  O4  0.87  2.40  2.877(5)  114.8  2_747
  O19  H19A  O10  0.91  2.14  2.918(7)  142.0  .
  O19  H19B  O17  1.08  1.80  2.775(11)  148.8  2_636
  O17  H17A  O11  0.96  2.10  3.029(9)  162.5  1_456
  O18  H18A  O17  0.92  2.10  2.992(10)  163.4  .
  O18  H18B  O6  1.07  1.82  2.835(6)  155.0  1_455
  O16  H16A  O11  1.08  1.70  2.748(4)  160.5  2_746
  O16  H16B  O19  0.98  2.44  3.188(8)  132.9  2_646
  O14  H14A  O17  0.87  2.18  2.730(9)  120.7  .
  O14  H14B  O16  0.95  1.90  2.848(5)  173.0  2_647
  O15  H15A  O18  1.00  1.73  2.722(7)  172.4  .
  O15  H15B  O12  0.96  1.85  2.799(5)  171.2  1_455
  O13  H13A  O19  0.88  2.13  2.946(8)  152.4  1_556
  O13  H13B  O2  0.87  2.06  2.909(5)  167.5  2_647
  O13  H13B  O4  0.87  2.40  2.877(5)  114.8  2_747
  O19  H19A  O10  0.91  2.14  2.918(7)  142.0  .
  O19  H19B  O17  1.08  1.80  2.775(11)  148.8  2_636
  O17  H17A  O11  0.96  2.10  3.029(9)  162.5  1_456
  O18  H18A  O17  0.92  2.10  2.992(10)  163.4  .
  O18  H18B  O6  1.07  1.82  2.835(6)  155.0  1_455
  O16  H16A  O11  1.08  1.70  2.748(4)  160.5  2_746
  O16  H16B  O19  0.98  2.44  3.188(8)  132.9  2_646
  O14  H14A  O17  0.87  2.18  2.730(9)  120.7  .
  O14  H14B  O16  0.95  1.90  2.848(5)  173.0  2_647
  O15  H15A  O18  1.00  1.73  2.722(7)  172.4  .
  O15  H15B  O12  0.96  1.85  2.799(5)  171.2  1_455
  O13  H13A  O19  0.88  2.13  2.946(8)  152.4  1_556
  O13  H13B  O2  0.87  2.06  2.909(5)  167.5  2_647
  O13  H13B  O4  0.87  2.40  2.877(5)  114.8  2_747
  O19  H19A  O10  0.91  2.14  2.918(7)  142.0  .
  O19  H19B  O17  1.08  1.80  2.775(11)  148.8  2_636
  O17  H17A  O11  0.96  2.10  3.029(9)  162.5  1_456
  O18  H18A  O17  0.92  2.10  2.992(10)  163.4  .
  O18  H18B  O6  1.07  1.82  2.835(6)  155.0  1_455
  O16  H16A  O11  1.08  1.70  2.748(4)  160.5  2_746
  O16  H16B  O19  0.98  2.44  3.188(8)  132.9  2_646
  O14  H14A  O17  0.87  2.18  2.730(9)  120.7  .
  O14  H14B  O16  0.95  1.90  2.848(5)  173.0  2_647
  O15  H15A  O18  1.00  1.73  2.722(7)  172.4  .
  O15  H15B  O12  0.96  1.85  2.799(5)  171.2  1_455
  O13  H13A  O19  0.88  2.13  2.946(8)  152.4  1_556
  O13  H13B  O2  0.87  2.06  2.909(5)  167.5  2_647
  O13  H13B  O4  0.87  2.40  2.877(5)  114.8  2_747
  O19  H19A  O10  0.91  2.14  2.918(7)  142.0  .
  O19  H19B  O17  1.08  1.80  2.775(11)  148.8  2_636
  O17  H17A  O11  0.96  2.10  3.029(9)  162.5  1_456
  O18  H18A  O17  0.92  2.10  2.992(10)  163.4  .
  O18  H18B  O6  1.07  1.82  2.835(6)  155.0  1_455
  O16  H16A  O11  1.08  1.70  2.748(4)  160.5  2_746
  O16  H16B  O19  0.98  2.44  3.188(8)  132.9  2_646
  O14  H14A  O17  0.87  2.18  2.730(9)  120.7  .
  O14  H14B  O16  0.95  1.90  2.848(5)  173.0  2_647
  O15  H15A  O18  1.00  1.73  2.722(7)  172.4  .
  O15  H15B  O12  0.96  1.85  2.799(5)  171.2  1_455
  O13  H13A  O19  0.88  2.13  2.946(8)  152.4  1_556
  O13  H13B  O2  0.87  2.06  2.909(5)  167.5  2_647
  O13  H13B  O4  0.87  2.40  2.877(5)  114.8  2_747
  O19  H19A  O10  0.91  2.14  2.918(7)  142.0  .
  O19  H19B  O17  1.08  1.80  2.775(11)  148.8  2_636
  O17  H17A  O11  0.96  2.10  3.029(9)  162.5  1_456
loop_
 _publcif_info_datablock.id
 _publcif_info_datablock.publ_exptl
 _publcif_info_datablock.publ_geom
 _publcif_info_datablock.structure
  {eb3c48c0-7cc8-449d-92e2-f2c1a6f917bc}  y  y  y
loop_
 _publcif_info_exptl_table_extra_item
  sin_theta_over_lambda_max
loop_
 _publcif_info_tables.block_id
 _publcif_info_tables.reference_item
  {eb3c48c0-7cc8-449d-92e2-f2c1a6f917bc}
  '_publcif_info_datablock.publ_exptl'
  {eb3c48c0-7cc8-449d-92e2-f2c1a6f917bc}
  '_geom_hbond_atom_site_label_D'
