# generated using pymatgen
data_9012435
loop_
 _publ_author_name
  'Jette, E. R.'
  'Foote, F.'
_publ_section_title
;
Precision determination of lattice constants  Sample: at T = 25 C
Note: lattice parameter is average of three samples
;
_journal_name_full   'Journal of Chemical Physics'
_journal_page_first   605
_journal_page_last   616
_journal_paper_doi   10.1063/1.1749562
_journal_volume   3
_journal_year   1935
_chemical_compound_source   Synthetic
_chemical_formula_sum   Zn
_chemical_name_mineral   Zinc
_space_group_IT_number   194
_symmetry_space_group_name_Hall   '-P 6c 2c'
_symmetry_space_group_name_H-M   'P 63/m m c'
_cell_angle_alpha   90
_cell_angle_beta   90
_cell_angle_gamma   120
_cell_formula_units_Z   2
_cell_length_a   2.6594
_cell_length_b   2.6594
_cell_length_c   4.9368
_cell_volume   30.237
_database_code_amcsd   0012940
_diffrn_ambient_temperature   298.15
_exptl_crystal_density_diffrn   7.182
_cod_depositor_comments
;
Added the _cell_formula_units_Z data item.  Antanas Vaitkus,
2021-04-22
;
_cod_database_code   9012435
loop_
 _space_group_symop_operation_xyz
  x,y,z
  -x,-x+y,1/2+z
  x,x-y,1/2-z
  -x+y,-x,1/2-z
  x-y,x,1/2+z
  -y,-x,z
  y,x,-z
  y,-x+y,-z
  -y,x-y,z
  x-y,-y,1/2+z
  -x+y,y,1/2-z
  x,y,1/2-z
  -x,-y,1/2+z
  x,x-y,z
  -x,-x+y,-z
  x-y,x,-z
  -x+y,-x,z
  y,x,1/2+z
  -y,-x,1/2-z
  -y,x-y,1/2-z
  y,-x+y,1/2+z
  -x+y,y,z
  x-y,-y,-z
  -x,-y,-z
loop_
 _atom_site_label
 _atom_site_fract_x
 _atom_site_fract_y
 _atom_site_fract_z
  Zn  0.33333  0.66667  0.25000
loop_
 _cod_related_entry_id
 _cod_related_entry_database
 _cod_related_entry_code
  1  ChemSpider  22430
  2  AMCSD  0012940
