# generated using pymatgen
data_9014281
loop_
 _publ_author_name
  'Hervieu, M.'
  'Michel, C.'
  'Raveau, B.'
_publ_section_title
;
Proprietes d'echanges d'ions de quelques oxydes ternaires de type
pyrochlore: les pyrochlores H1+x(H2O)Ta1+xW1-xO6 et NH4TaWO6
_cod_database_code 1001166
;
_journal_name_full   'Bulletin de la Societe Chimique de France'
_journal_page_first   3939
_journal_page_last   3943
_journal_volume   1971
_journal_year   1971
_chemical_formula_sum   'O7 Ta2'
_space_group_IT_number   227
_symmetry_space_group_name_Hall   '-F 4vw 2vw 3'
_symmetry_space_group_name_H-M   'F d -3 m :2'
_cell_angle_alpha   90
_cell_angle_beta   90
_cell_angle_gamma   90
_cell_length_a   10.58
_cell_length_b   10.58
_cell_length_c   10.58
_cell_formula_units_Z   8
_cell_volume   1184.287
_database_code_amcsd   0012104
_exptl_crystal_density_diffrn   5.316
_cod_duplicate_entry   1001166
_cod_original_sg_symbol_H-M   'F d 3 m'
_cod_original_formula_sum   'Ta2 O7'
_cod_database_code   9014281
_amcsd_formula_title   'H4 O7 Ta2'
loop_
 _space_group_symop_operation_xyz
  x,y,z
  x,1/2+y,1/2+z
  1/2+x,y,1/2+z
  1/2+x,1/2+y,z
  3/4+z,1/2-x,1/4+y
  3/4+z,-x,3/4+y
  1/4+z,1/2-x,3/4+y
  1/4+z,-x,1/4+y
  3/4-y,1/2+z,1/4-x
  3/4-y,+z,3/4-x
  1/4-y,1/2+z,3/4-x
  1/4-y,+z,1/4-x
  3/4+x,1/2-y,1/4+z
  3/4+x,-y,3/4+z
  1/4+x,1/2-y,3/4+z
  1/4+x,-y,1/4+z
  3/4-z,1/2+x,1/4-y
  3/4-z,+x,3/4-y
  1/4-z,1/2+x,3/4-y
  1/4-z,+x,1/4-y
  3/4+y,1/2-z,1/4+x
  3/4+y,-z,3/4+x
  1/4+y,1/2-z,3/4+x
  1/4+y,-z,1/4+x
  3/4-x,1/2+y,1/4-z
  3/4-x,+y,3/4-z
  1/4-x,1/2+y,3/4-z
  1/4-x,+y,1/4-z
  1/2+x,3/4-z,1/4-y
  1/2+x,1/4-z,3/4-y
  +x,3/4-z,3/4-y
  +x,1/4-z,1/4-y
  1/2-z,3/4+y,1/4+x
  1/2-z,1/4+y,3/4+x
  -z,3/4+y,3/4+x
  -z,1/4+y,1/4+x
  1/2+y,3/4-x,1/4-z
  1/2+y,1/4-x,3/4-z
  +y,3/4-x,3/4-z
  +y,1/4-x,1/4-z
  1/2-x,3/4+z,1/4+y
  1/2-x,1/4+z,3/4+y
  -x,3/4+z,3/4+y
  -x,1/4+z,1/4+y
  1/2+z,3/4-y,1/4-x
  1/2+z,1/4-y,3/4-x
  +z,3/4-y,3/4-x
  +z,1/4-y,1/4-x
  1/2-y,3/4+x,1/4+z
  1/2-y,1/4+x,3/4+z
  -y,3/4+x,3/4+z
  -y,1/4+x,1/4+z
  x,1/2+z,1/2+y
  x,+z,+y
  1/2+x,1/2+z,+y
  1/2+x,+z,1/2+y
  -z,1/2-y,1/2-x
  -z,-y,-x
  1/2-z,1/2-y,-x
  1/2-z,-y,1/2-x
  y,1/2+x,1/2+z
  y,+x,+z
  1/2+y,1/2+x,+z
  1/2+y,+x,1/2+z
  -x,1/2-z,1/2-y
  -x,-z,-y
  1/2-x,1/2-z,-y
  1/2-x,-z,1/2-y
  z,1/2+y,1/2+x
  z,+y,+x
  1/2+z,1/2+y,+x
  1/2+z,+y,1/2+x
  -y,1/2-x,1/2-z
  -y,-x,-z
  1/2-y,1/2-x,-z
  1/2-y,-x,1/2-z
  3/4+z,1/4+x,1/2-y
  3/4+z,3/4+x,-y
  1/4+z,1/4+x,-y
  1/4+z,3/4+x,1/2-y
  3/4-y,1/4-z,1/2+x
  3/4-y,3/4-z,+x
  1/4-y,1/4-z,+x
  1/4-y,3/4-z,1/2+x
  3/4+x,1/4+y,1/2-z
  3/4+x,3/4+y,-z
  1/4+x,1/4+y,-z
  1/4+x,3/4+y,1/2-z
  3/4-z,1/4-x,1/2+y
  3/4-z,3/4-x,+y
  1/4-z,1/4-x,+y
  1/4-z,3/4-x,1/2+y
  3/4+y,1/4+z,1/2-x
  3/4+y,3/4+z,-x
  1/4+y,1/4+z,-x
  1/4+y,3/4+z,1/2-x
  3/4-x,1/4-y,1/2+z
  3/4-x,3/4-y,+z
  1/4-x,1/4-y,+z
  1/4-x,3/4-y,1/2+z
  -z,3/4+x,3/4+y
  -z,1/4+x,1/4+y
  1/2-z,3/4+x,1/4+y
  1/2-z,1/4+x,3/4+y
  y,3/4-z,3/4-x
  y,1/4-z,1/4-x
  1/2+y,3/4-z,1/4-x
  1/2+y,1/4-z,3/4-x
  -x,3/4+y,3/4+z
  -x,1/4+y,1/4+z
  1/2-x,3/4+y,1/4+z
  1/2-x,1/4+y,3/4+z
  z,3/4-x,3/4-y
  z,1/4-x,1/4-y
  1/2+z,3/4-x,1/4-y
  1/2+z,1/4-x,3/4-y
  -y,3/4+z,3/4+x
  -y,1/4+z,1/4+x
  1/2-y,3/4+z,1/4+x
  1/2-y,1/4+z,3/4+x
  x,3/4-y,3/4-z
  x,1/4-y,1/4-z
  1/2+x,3/4-y,1/4-z
  1/2+x,1/4-y,3/4-z
  1/4-x,1/2+z,3/4-y
  1/4-x,+z,1/4-y
  3/4-x,1/2+z,1/4-y
  3/4-x,+z,3/4-y
  1/4+z,1/2-y,3/4+x
  1/4+z,-y,1/4+x
  3/4+z,1/2-y,1/4+x
  3/4+z,-y,3/4+x
  1/4-y,1/2+x,3/4-z
  1/4-y,+x,1/4-z
  3/4-y,1/2+x,1/4-z
  3/4-y,+x,3/4-z
  1/4+x,1/2-z,3/4+y
  1/4+x,-z,1/4+y
  3/4+x,1/2-z,1/4+y
  3/4+x,-z,3/4+y
  1/4-z,1/2+y,3/4-x
  1/4-z,+y,1/4-x
  3/4-z,1/2+y,1/4-x
  3/4-z,+y,3/4-x
  1/4+y,1/2-x,3/4+z
  1/4+y,-x,1/4+z
  3/4+y,1/2-x,1/4+z
  3/4+y,-x,3/4+z
  3/4-x,3/4-z,y
  3/4-x,1/4-z,1/2+y
  1/4-x,3/4-z,1/2+y
  1/4-x,1/4-z,y
  3/4+z,3/4+y,-x
  3/4+z,1/4+y,1/2-x
  1/4+z,3/4+y,1/2-x
  1/4+z,1/4+y,-x
  3/4-y,3/4-x,z
  3/4-y,1/4-x,1/2+z
  1/4-y,3/4-x,1/2+z
  1/4-y,1/4-x,z
  3/4+x,3/4+z,-y
  3/4+x,1/4+z,1/2-y
  1/4+x,3/4+z,1/2-y
  1/4+x,1/4+z,-y
  3/4-z,3/4-y,x
  3/4-z,1/4-y,1/2+x
  1/4-z,3/4-y,1/2+x
  1/4-z,1/4-y,x
  3/4+y,3/4+x,-z
  3/4+y,1/4+x,1/2-z
  1/4+y,3/4+x,1/2-z
  1/4+y,1/4+x,-z
  -z,-x,-y
  -z,1/2-x,1/2-y
  1/2-z,-x,1/2-y
  1/2-z,1/2-x,-y
  y,z,x
  y,1/2+z,1/2+x
  1/2+y,z,1/2+x
  1/2+y,1/2+z,x
  -x,-y,-z
  -x,1/2-y,1/2-z
  1/2-x,-y,1/2-z
  1/2-x,1/2-y,-z
  z,x,y
  z,1/2+x,1/2+y
  1/2+z,x,1/2+y
  1/2+z,1/2+x,y
  -y,-z,-x
  -y,1/2-z,1/2-x
  1/2-y,-z,1/2-x
  1/2-y,1/2-z,-x
loop_
 _atom_site_label
 _atom_site_fract_x
 _atom_site_fract_y
 _atom_site_fract_z
  Ta1  0.50000  0.50000  0.50000
  O1  0.43500  0.12500  0.12500
  O2  0.12500  0.12500  0.12500
loop_
 _cod_related_entry_id
 _cod_related_entry_database
 _cod_related_entry_code
  1  AMCSD  0012104
